FCG16952409_PLANTS_1
     RDKit          3D

 26 28  0  0  0  0  0  0  0  0999 V2000
   14.1857   -6.9036   18.1848 C   0  0  0  0  0  0  0  0  0  0  0  0
   14.7785   -5.5641   18.4741 C   0  0  0  0  0  0  0  0  0  0  0  0
   15.7003   -5.4694   19.3129 O   0  0  0  0  0  0  0  0  0  0  0  0
   14.2646   -4.4577   17.7796 N   0  0  0  0  0  0  0  0  0  0  0  0
   14.7535   -3.1224   17.9696 C   0  0  0  0  0  0  0  0  0  0  0  0
   15.7620   -2.8425   16.8789 C   0  0  0  0  0  0  0  0  0  0  0  0
   15.7279   -3.3040   15.5905 C   0  0  0  0  0  0  0  0  0  0  0  0
   16.8608   -2.7892   14.9402 C   0  0  0  0  0  0  0  0  0  0  0  0
   17.5330   -2.0372   15.8709 C   0  0  0  0  0  0  0  0  0  0  0  0
   18.7673   -1.3072   15.6781 C   0  0  0  0  0  0  0  0  0  0  0  0
   19.2962   -1.3808   14.5117 O   0  0  0  0  0  0  0  0  0  0  0  0
   19.4609   -0.5115   16.6594 C   0  0  0  0  0  0  0  0  0  0  0  0
   19.3187   -0.8227   18.0098 O   0  0  0  0  0  0  0  0  0  0  0  0
   18.2333   -0.4779   18.7835 C   0  0  0  0  0  0  0  0  0  0  0  0
   18.1000   -0.9865   19.9092 O   0  0  0  0  0  0  0  0  0  0  0  0
   17.2025    0.4789   18.3407 C   0  0  0  0  0  0  0  0  0  0  0  0
   17.0340    1.1086   17.1895 C   0  0  0  0  0  0  0  0  0  0  0  0
   15.9877    1.9516   17.0322 C   0  0  0  0  0  0  0  0  0  0  0  0
   15.1478    2.1145   18.0763 C   0  0  0  0  0  0  0  0  0  0  0  0
   15.8485    1.0546   19.3104 S   0  0  0  0  0  0  0  0  0  0  0  0
   13.9244    2.8720   18.4106 C   0  0  0  0  0  0  0  0  0  0  0  0
   14.0088    4.2841   17.8892 C   0  0  0  0  0  0  0  0  0  0  0  0
   14.0518    4.2551   16.3813 C   0  0  0  0  0  0  0  0  0  0  0  0
   15.4882    4.1320   15.9561 C   0  0  0  0  0  0  0  0  0  0  0  0
   15.7905    2.6837   15.6948 C   0  0  0  0  0  0  0  0  0  0  0  0
   16.8329   -2.1066   16.9998 O   0  0  0  0  0  0  0  0  0  0  0  0
  1  2  1  0
  2  3  2  0
  2  4  1  0
  4  5  1  0
  5  6  1  0
  6  7  2  0
  7  8  1  0
  8  9  2  0
  9 10  1  0
  9 26  1  0
 10 11  2  0
 10 12  1  0
 12 13  1  0
 13 14  1  0
 14 15  2  0
 14 16  1  0
 16 17  2  0
 17 18  1  0
 18 19  2  0
 19 20  1  0
 19 21  1  0
 20 16  1  0
 21 22  1  0
 22 23  1  0
 23 24  1  0
 24 25  1  0
 25 18  1  0
 26  6  1  0
M  END
$$$$
FCG17585042_PLANTS_1
     RDKit          3D

 25 28  0  0  0  0  0  0  0  0999 V2000
   13.0795   -3.8085   17.2110 C   0  0  0  0  0  0  0  0  0  0  0  0
   14.3376   -3.9889   17.9323 N   0  0  0  0  0  0  0  0  0  0  0  0
   14.9066   -5.1402   18.3442 C   0  0  0  0  0  0  0  0  0  0  0  0
   14.3460   -6.5141   18.1205 C   0  0  0  0  0  0  0  0  0  0  0  0
   13.0407   -6.6835   18.8494 C   0  0  0  0  0  0  0  0  0  0  0  0
   13.0221   -6.9897   20.2209 C   0  0  0  0  0  0  0  0  0  0  0  0
   11.8055   -7.1435   20.8921 C   0  0  0  0  0  0  0  0  0  0  0  0
   10.6004   -6.9899   20.2019 C   0  0  0  0  0  0  0  0  0  0  0  0
   10.6099   -6.6900   18.8368 C   0  0  0  0  0  0  0  0  0  0  0  0
   11.8246   -6.5430   18.1599 C   0  0  0  0  0  0  0  0  0  0  0  0
   16.0468   -4.9071   19.0241 N   0  0  0  0  0  0  0  0  0  0  0  0
   16.2214   -3.5934   19.0530 N   0  0  0  0  0  0  0  0  0  0  0  0
   15.1799   -3.0461   18.3990 C   0  0  0  0  0  0  0  0  0  0  0  0
   14.9605   -1.2745   18.1926 S   0  0  0  0  0  0  0  0  0  0  0  0
   16.3787   -0.8067   19.2444 C   0  0  0  0  0  0  0  0  0  0  0  0
   17.6597   -0.7916   18.4639 C   0  0  0  0  0  0  0  0  0  0  0  0
   17.6175   -0.9007   17.1021 N   0  0  0  0  0  0  0  0  0  0  0  0
   18.7712   -0.8613   16.3908 C   0  0  0  0  0  0  0  0  0  0  0  0
   18.8651   -0.9436   15.0010 C   0  0  0  0  0  0  0  0  0  0  0  0
   20.1844   -0.8627   14.5547 C   0  0  0  0  0  0  0  0  0  0  0  0
   21.2157   -0.6898   15.8884 S   0  0  0  0  0  0  0  0  0  0  0  0
   19.9828   -0.7173   17.0273 C   0  0  0  0  0  0  0  0  0  0  0  0
   20.0356   -0.6156   18.4100 C   0  0  0  0  0  0  0  0  0  0  0  0
   21.1371   -0.5050   19.0102 O   0  0  0  0  0  0  0  0  0  0  0  0
   18.8637   -0.6446   19.1079 N   0  0  0  0  0  0  0  0  0  0  0  0
  1  2  1  0
  2  3  1  0
  3  4  1  0
  3 11  2  0
  4  5  1  0
  5  6  2  0
  6  7  1  0
  7  8  2  0
  8  9  1  0
  9 10  2  0
 10  5  1  0
 11 12  1  0
 12 13  2  0
 13 14  1  0
 13  2  1  0
 14 15  1  0
 15 16  1  0
 16 17  1  0
 17 18  2  0
 18 19  1  0
 19 20  2  0
 20 21  1  0
 21 22  1  0
 22 23  1  0
 22 18  1  0
 23 24  2  0
 23 25  1  0
 25 16  2  0
M  END
$$$$
FCG1390566_PLANTS_1
     RDKit          3D

 14 15  0  0  0  0  0  0  0  0999 V2000
   20.0029   -0.4881   16.3125 C   0  0  0  0  0  0  0  0  0  0  0  0
   18.8746   -0.8470   17.1756 N   0  0  0  0  0  0  0  0  0  0  0  0
   18.8185   -0.3834   18.5644 C   0  0  0  0  0  0  0  0  0  0  0  0
   17.8152   -1.6637   16.6456 C   0  0  0  0  0  0  0  0  0  0  0  0
   16.7010   -1.9786   17.3431 N   0  0  0  0  0  0  0  0  0  0  0  0
   15.8546   -2.7602   16.6186 C   0  0  0  0  0  0  0  0  0  0  0  0
   14.5749   -3.2775   17.1960 C   0  0  0  0  0  0  0  0  0  0  0  0
   14.8025   -4.6140   17.8231 C   0  0  0  0  0  0  0  0  0  0  0  0
   14.7989   -5.7777   17.1495 N   0  0  0  0  0  0  0  0  0  0  0  0
   15.1000   -6.6896   18.0593 N   0  0  0  0  0  0  0  0  0  0  0  0
   15.2892   -6.1068   19.2329 N   0  0  0  0  0  0  0  0  0  0  0  0
   15.1161   -4.8004   19.1173 N   0  0  0  0  0  0  0  0  0  0  0  0
   16.2993   -3.0892   15.3395 C   0  0  0  0  0  0  0  0  0  0  0  0
   17.7954   -2.3569   15.1092 S   0  0  0  0  0  0  0  0  0  0  0  0
  1  2  1  0
  2  3  1  0
  2  4  1  0
  4  5  2  0
  5  6  1  0
  6  7  1  0
  6 13  2  0
  7  8  1  0
  8  9  2  0
  9 10  1  0
 10 11  2  0
 11 12  1  0
 12  8  1  0
 13 14  1  0
 14  4  1  0
M  END
$$$$
FCG17822054_PLANTS_1
     RDKit          3D

 21 23  0  0  0  0  0  0  0  0999 V2000
   23.3368   -1.2161   19.0302 N   0  0  0  0  0  0  0  0  0  0  0  0
   22.2865   -0.9916   18.6155 C   0  0  0  0  0  0  0  0  0  0  0  0
   20.9616   -0.6919   18.1104 C   0  0  0  0  0  0  0  0  0  0  0  0
   20.6717   -0.6917   16.7647 C   0  0  0  0  0  0  0  0  0  0  0  0
   19.3674   -0.3875   16.3719 C   0  0  0  0  0  0  0  0  0  0  0  0
   18.3714   -0.0913   17.2719 C   0  0  0  0  0  0  0  0  0  0  0  0
   17.0078    0.2180   16.7899 C   0  0  0  0  0  0  0  0  0  0  0  0
   15.7349    0.1551   18.0395 S   0  0  0  0  0  0  0  0  0  0  0  0
   14.6647   -1.2560   17.9188 C   0  0  0  0  0  0  0  0  0  0  0  0
   13.3697   -1.2873   18.2143 N   0  0  0  0  0  0  0  0  0  0  0  0
   12.9140   -2.4895   18.0051 N   0  0  0  0  0  0  0  0  0  0  0  0
   13.9506   -3.2530   17.5612 C   0  0  0  0  0  0  0  0  0  0  0  0
   13.7758   -4.6806   17.2271 C   0  0  0  0  0  0  0  0  0  0  0  0
   14.7994   -5.5145   17.8264 N   0  0  0  0  0  0  0  0  0  0  0  0
   14.8001   -5.3556   19.2478 C   0  0  0  0  0  0  0  0  0  0  0  0
   14.4995   -6.7328   19.8464 C   0  0  0  0  0  0  0  0  0  0  0  0
   13.6282   -7.2930   18.7133 C   0  0  0  0  0  0  0  0  0  0  0  0
   14.5009   -6.8939   17.5171 C   0  0  0  0  0  0  0  0  0  0  0  0
   14.9782   -2.4692   17.5264 O   0  0  0  0  0  0  0  0  0  0  0  0
   18.6612   -0.0907   18.6327 C   0  0  0  0  0  0  0  0  0  0  0  0
   19.9457   -0.3905   19.0100 C   0  0  0  0  0  0  0  0  0  0  0  0
  1  2  3  0
  2  3  1  0
  3  4  2  0
  4  5  1  0
  5  6  2  0
  6  7  1  0
  6 20  1  0
  7  8  1  0
  8  9  1  0
  9 10  2  0
 10 11  1  0
 11 12  2  0
 12 13  1  0
 12 19  1  0
 13 14  1  0
 14 15  1  0
 15 16  1  0
 16 17  1  0
 17 18  1  0
 18 14  1  0
 19  9  1  0
 20 21  2  0
 21  3  1  0
M  END
$$$$
FCG16425532_PLANTS_1
     RDKit          3D

 18 19  0  0  0  0  0  0  0  0999 V2000
   11.5656   -5.1272   17.5172 C   0  0  0  0  0  0  0  0  0  0  0  0
   12.8958   -5.6035   17.8893 N   0  0  0  0  0  0  0  0  0  0  0  0
   13.2229   -6.8918   18.1134 C   0  0  0  0  0  0  0  0  0  0  0  0
   14.5618   -6.9912   18.4301 C   0  0  0  0  0  0  0  0  0  0  0  0
   15.0732   -5.7095   18.3969 C   0  0  0  0  0  0  0  0  0  0  0  0
   14.0227   -4.8730   18.0613 C   0  0  0  0  0  0  0  0  0  0  0  0
   14.1370   -3.4079   17.9122 C   0  0  0  0  0  0  0  0  0  0  0  0
   13.0900   -2.7127   17.8016 O   0  0  0  0  0  0  0  0  0  0  0  0
   15.3940   -2.7942   17.8864 O   0  0  0  0  0  0  0  0  0  0  0  0
   15.5845   -1.4036   17.6356 C   0  0  0  0  0  0  0  0  0  0  0  0
   17.0491   -1.0474   17.7317 C   0  0  0  0  0  0  0  0  0  0  0  0
   17.5319   -0.4120   18.8893 C   0  0  0  0  0  0  0  0  0  0  0  0
   18.8864   -0.0923   19.0099 C   0  0  0  0  0  0  0  0  0  0  0  0
   19.7744   -0.4055   17.9798 C   0  0  0  0  0  0  0  0  0  0  0  0
   19.3113   -1.0409   16.8255 C   0  0  0  0  0  0  0  0  0  0  0  0
   17.9542   -1.3671   16.6931 C   0  0  0  0  0  0  0  0  0  0  0  0
   17.5129   -2.0264   15.4872 C   0  0  0  0  0  0  0  0  0  0  0  0
   17.1598   -2.5554   14.5203 N   0  0  0  0  0  0  0  0  0  0  0  0
  1  2  1  0
  2  3  1  0
  3  4  2  0
  4  5  1  0
  5  6  2  0
  6  7  1  0
  6  2  1  0
  7  8  2  0
  7  9  1  0
  9 10  1  0
 10 11  1  0
 11 12  2  0
 12 13  1  0
 13 14  2  0
 14 15  1  0
 15 16  2  0
 16 17  1  0
 16 11  1  0
 17 18  3  0
M  END
$$$$
FCG18066182_PLANTS_1
     RDKit          3D

 19 20  0  0  0  0  0  0  0  0999 V2000
   17.8106   -0.6853   19.4002 C   0  0  0  0  0  0  0  0  0  0  0  0
   18.9157   -0.6040   18.3973 C   0  0  0  0  0  0  0  0  0  0  0  0
   20.2199   -0.7316   18.7117 N   0  0  0  0  0  0  0  0  0  0  0  0
   20.8882   -0.6900   17.5950 O   0  0  0  0  0  0  0  0  0  0  0  0
   20.0859   -0.5542   16.5644 C   0  0  0  0  0  0  0  0  0  0  0  0
   20.5489   -0.4874   15.1463 C   0  0  0  0  0  0  0  0  0  0  0  0
   18.7837   -0.4788   17.0255 C   0  0  0  0  0  0  0  0  0  0  0  0
   17.5181   -0.3629   16.2228 C   0  0  0  0  0  0  0  0  0  0  0  0
   16.5902   -1.9404   16.1968 S   0  0  0  0  0  0  0  0  0  0  0  0
   15.3102   -1.4929   17.4272 C   0  0  0  0  0  0  0  0  0  0  0  0
   14.4310   -2.6593   17.7666 C   0  0  0  0  0  0  0  0  0  0  0  0
   13.1829   -2.4906   17.8105 O   0  0  0  0  0  0  0  0  0  0  0  0
   15.0052   -3.9506   18.0318 N   0  0  0  0  0  0  0  0  0  0  0  0
   14.2285   -5.1410   18.2446 C   0  0  0  0  0  0  0  0  0  0  0  0
   14.8069   -6.2289   18.9172 C   0  0  0  0  0  0  0  0  0  0  0  0
   14.0705   -7.3964   19.1393 C   0  0  0  0  0  0  0  0  0  0  0  0
   12.7445   -7.4801   18.7078 C   0  0  0  0  0  0  0  0  0  0  0  0
   12.1505   -6.3930   18.0616 C   0  0  0  0  0  0  0  0  0  0  0  0
   12.8847   -5.2243   17.8355 C   0  0  0  0  0  0  0  0  0  0  0  0
  1  2  1  0
  2  3  2  0
  3  4  1  0
  4  5  1  0
  5  6  1  0
  5  7  2  0
  7  8  1  0
  7  2  1  0
  8  9  1  0
  9 10  1  0
 10 11  1  0
 11 12  2  0
 11 13  1  0
 13 14  1  0
 14 15  2  0
 15 16  1  0
 16 17  2  0
 17 18  1  0
 18 19  2  0
 19 14  1  0
M  END
$$$$
FCG18472628_PLANTS_1
     RDKit          3D

 24 26  0  0  1  0  0  0  0  0999 V2000
   11.0673   -6.6888   20.7122 C   0  0  0  0  0  0  0  0  0  0  0  0
   12.2269   -6.8700   19.7979 C   0  0  1  0  0  0  0  0  0  0  0  0
   11.9856   -6.1549   18.4604 C   0  0  0  0  0  0  0  0  0  0  0  0
   12.9985   -6.7026   17.5126 C   0  0  0  0  0  0  0  0  0  0  0  0
   14.2032   -7.2925   18.1373 C   0  0  0  0  0  0  0  0  0  0  0  0
   14.6270   -6.7152   19.4335 C   0  0  1  0  0  0  0  0  0  0  0  0
   15.5447   -5.6182   19.1696 N   0  0  0  0  0  0  0  0  0  0  0  0
   15.1228   -4.3652   18.6452 C   0  0  0  0  0  0  0  0  0  0  0  0
   13.8934   -4.2325   18.4098 O   0  0  0  0  0  0  0  0  0  0  0  0
   16.1043   -3.2525   18.3852 C   0  0  0  0  0  0  0  0  0  0  0  0
   15.3709   -2.0005   18.4884 N   0  0  0  0  0  0  0  0  0  0  0  0
   14.1733   -1.8235   19.0186 N   0  0  0  0  0  0  0  0  0  0  0  0
   13.8015   -0.5765   18.9523 N   0  0  0  0  0  0  0  0  0  0  0  0
   14.8044    0.1215   18.3441 C   0  0  0  0  0  0  0  0  0  0  0  0
   14.8284    1.5484   18.0563 C   0  0  0  0  0  0  0  0  0  0  0  0
   13.9390    2.3713   18.6983 C   0  0  0  0  0  0  0  0  0  0  0  0
   13.9732    3.7324   18.4135 C   0  0  0  0  0  0  0  0  0  0  0  0
   14.8848    4.2200   17.5070 C   0  0  0  0  0  0  0  0  0  0  0  0
   15.7868    3.3850   16.8560 C   0  0  0  0  0  0  0  0  0  0  0  0
   15.7347    2.0420   17.1533 C   0  0  0  0  0  0  0  0  0  0  0  0
   16.9277    0.8234   16.3135 Br  0  0  0  0  0  0  0  0  0  0  0  0
   15.7500   -0.8042   18.0777 N   0  0  0  0  0  0  0  0  0  0  0  0
   13.5168   -6.2770   20.3314 C   0  0  2  0  0  0  0  0  0  0  0  0
   13.7396   -6.6948   21.7443 C   0  0  0  0  0  0  0  0  0  0  0  0
  2  1  1  1
  2  3  1  0
  3  4  1  0
  4  5  1  0
  5  6  1  0
  6  7  1  6
  6 23  1  0
  7  8  1  0
  8  9  2  0
  8 10  1  0
 10 11  1  0
 11 12  1  0
 12 13  2  0
 13 14  1  0
 14 15  1  0
 14 22  2  0
 15 16  2  0
 16 17  1  0
 17 18  2  0
 18 19  1  0
 19 20  2  0
 20 21  1  0
 20 15  1  0
 22 11  1  0
 23 24  1  1
 23  2  1  0
M  END
$$$$
FCG17274676_PLANTS_1
     RDKit          3D

 28 31  0  0  0  0  0  0  0  0999 V2000
   19.4074   -0.5116   17.3059 C   0  0  0  0  0  0  0  0  0  0  0  0
   18.2368    0.1875   16.6555 C   0  0  0  0  0  0  0  0  0  0  0  0
   16.9479   -0.0761   17.2227 N   0  0  0  0  0  0  0  0  0  0  0  0
   16.5170   -1.4118   17.1704 C   0  0  0  0  0  0  0  0  0  0  0  0
   17.3708   -2.2574   16.6808 O   0  0  0  0  0  0  0  0  0  0  0  0
   15.2624   -2.0267   17.5705 C   0  0  0  0  0  0  0  0  0  0  0  0
   15.0038   -3.2407   17.8710 O   0  0  0  0  0  0  0  0  0  0  0  0
   14.7428   -4.4664   18.1741 C   0  0  0  0  0  0  0  0  0  0  0  0
   14.7277   -5.4189   17.1639 C   0  0  0  0  0  0  0  0  0  0  0  0
   14.4621   -6.7442   17.3985 C   0  0  0  0  0  0  0  0  0  0  0  0
   14.1997   -7.1454   18.6909 C   0  0  0  0  0  0  0  0  0  0  0  0
   14.2065   -6.2215   19.7246 C   0  0  0  0  0  0  0  0  0  0  0  0
   13.9409   -6.6024   21.0641 N   0  0  0  0  0  0  0  0  0  0  0  0
   12.7882   -7.0494   21.5693 C   0  0  0  0  0  0  0  0  0  0  0  0
   13.0001   -7.2885   22.8931 N   0  0  0  0  0  0  0  0  0  0  0  0
   14.2575   -6.9915   23.1810 N   0  0  0  0  0  0  0  0  0  0  0  0
   14.8072   -6.5759   22.0479 N   0  0  0  0  0  0  0  0  0  0  0  0
   14.4773   -4.9052   19.4448 C   0  0  0  0  0  0  0  0  0  0  0  0
   16.0799    0.8873   17.7780 C   0  0  0  0  0  0  0  0  0  0  0  0
   15.4659    0.5956   19.0134 C   0  0  0  0  0  0  0  0  0  0  0  0
   14.5806    1.4311   19.6252 C   0  0  0  0  0  0  0  0  0  0  0  0
   14.2406    2.6185   19.0535 C   0  0  0  0  0  0  0  0  0  0  0  0
   14.8160    2.9468   17.8469 C   0  0  0  0  0  0  0  0  0  0  0  0
   14.4700    4.1559   17.2808 C   0  0  0  0  0  0  0  0  0  0  0  0
   15.0422    4.5084   16.0746 C   0  0  0  0  0  0  0  0  0  0  0  0
   15.9543    3.6611   15.4356 C   0  0  0  0  0  0  0  0  0  0  0  0
   16.2974    2.4528   16.0052 C   0  0  0  0  0  0  0  0  0  0  0  0
   15.7314    2.0901   17.2091 C   0  0  0  0  0  0  0  0  0  0  0  0
  1  2  1  0
  2  3  1  0
  3  4  1  0
  3 19  1  0
  4  5  2  0
  4  6  1  0
  6  7  1  0
  7  8  1  0
  8  9  2  0
  9 10  1  0
 10 11  2  0
 11 12  1  0
 12 13  1  0
 12 18  2  0
 13 14  1  0
 14 15  2  0
 15 16  1  0
 16 17  2  0
 17 13  1  0
 18  8  1  0
 19 20  2  0
 20 21  1  0
 21 22  2  0
 22 23  1  0
 23 24  2  0
 24 25  1  0
 25 26  2  0
 26 27  1  0
 27 28  2  0
 28 19  1  0
 28 23  1  0
M  END
$$$$
FCG16600623_PLANTS_1
     RDKit          3D

 24 27  0  0  1  0  0  0  0  0999 V2000
   19.9179   -1.1410   14.7888 C   0  0  0  0  0  0  0  0  0  0  0  0
   18.9069   -0.7186   15.8426 C   0  0  2  0  0  0  0  0  0  0  0  0
   19.6300   -0.7042   17.0830 O   0  0  0  0  0  0  0  0  0  0  0  0
   19.0851   -0.2074   18.2397 C   0  0  0  0  0  0  0  0  0  0  0  0
   19.7039   -0.3893   19.3152 O   0  0  0  0  0  0  0  0  0  0  0  0
   17.7972    0.5300   18.2437 C   0  0  0  0  0  0  0  0  0  0  0  0
   16.8886    0.6611   19.2158 C   0  0  0  0  0  0  0  0  0  0  0  0
   15.7704    1.3968   18.9812 C   0  0  0  0  0  0  0  0  0  0  0  0
   15.6303    1.9660   17.7645 C   0  0  0  0  0  0  0  0  0  0  0  0
   17.1288    1.4451   16.9181 S   0  0  0  0  0  0  0  0  0  0  0  0
   14.3736    2.7497   17.6467 C   0  0  0  0  0  0  0  0  0  0  0  0
   14.1982    3.1279   19.1272 C   0  0  0  0  0  0  0  0  0  0  0  0
   14.5137    1.7930   19.7542 C   0  0  0  0  0  0  0  0  0  0  0  0
   17.7883   -1.6572   15.9337 C   0  0  0  0  0  0  0  0  0  0  0  0
   17.2425   -1.9228   17.1315 N   0  0  0  0  0  0  0  0  0  0  0  0
   16.2174   -2.7674   17.3087 C   0  0  0  0  0  0  0  0  0  0  0  0
   15.6797   -3.0150   18.5730 C   0  0  0  0  0  0  0  0  0  0  0  0
   14.6263   -3.8903   18.7106 C   0  0  0  0  0  0  0  0  0  0  0  0
   14.1234   -4.5059   17.5908 C   0  0  0  0  0  0  0  0  0  0  0  0
   14.6423   -4.2728   16.3364 C   0  0  0  0  0  0  0  0  0  0  0  0
   15.7053   -3.3901   16.1940 C   0  0  0  0  0  0  0  0  0  0  0  0
   16.2640   -3.1190   14.9627 C   0  0  0  0  0  0  0  0  0  0  0  0
   15.7929   -3.6899   13.9489 O   0  0  0  0  0  0  0  0  0  0  0  0
   17.2827   -2.2729   14.8270 N   0  0  0  0  0  0  0  0  0  0  0  0
  2  1  1  6
  2  3  1  0
  2 14  1  0
  3  4  1  0
  4  5  2  0
  4  6  1  0
  6  7  2  0
  7  8  1  0
  8  9  2  0
  9 10  1  0
  9 11  1  0
 10  6  1  0
 11 12  1  0
 12 13  1  0
 13  8  1  0
 14 15  1  0
 15 16  2  0
 16 17  1  0
 17 18  1  0
 18 19  2  0
 19 20  1  0
 20 21  2  0
 21 22  1  0
 21 16  1  0
 22 23  2  0
 22 24  1  0
 24 14  2  0
M  END
$$$$
FCG16141527_PLANTS_1
     RDKit          3D

 23 26  0  0  0  0  0  0  0  0999 V2000
   22.5989   -0.3782   19.0899 C   0  0  0  0  0  0  0  0  0  0  0  0
   21.3393   -0.6642   18.3431 C   0  0  0  0  0  0  0  0  0  0  0  0
   20.1592   -0.7516   19.0105 N   0  0  0  0  0  0  0  0  0  0  0  0
   18.9878   -0.9786   18.3606 C   0  0  0  0  0  0  0  0  0  0  0  0
   17.4827   -1.0876   19.3379 S   0  0  0  0  0  0  0  0  0  0  0  0
   17.5528   -2.9039   19.4578 C   0  0  0  0  0  0  0  0  0  0  0  0
   16.2442   -3.4816   19.0193 C   0  0  0  0  0  0  0  0  0  0  0  0
   15.2147   -2.6451   18.5451 C   0  0  0  0  0  0  0  0  0  0  0  0
   14.0165   -3.2261   18.1101 C   0  0  0  0  0  0  0  0  0  0  0  0
   13.0776   -2.4995   17.6854 O   0  0  0  0  0  0  0  0  0  0  0  0
   13.8890   -4.5816   18.1528 N   0  0  0  0  0  0  0  0  0  0  0  0
   12.8049   -5.3115   17.7703 C   0  0  0  0  0  0  0  0  0  0  0  0
   12.9652   -6.6886   17.9223 C   0  0  0  0  0  0  0  0  0  0  0  0
   14.5078   -6.9899   18.5518 S   0  0  0  0  0  0  0  0  0  0  0  0
   14.8970   -5.3599   18.6023 C   0  0  0  0  0  0  0  0  0  0  0  0
   16.0700   -4.8339   19.0303 N   0  0  0  0  0  0  0  0  0  0  0  0
   18.9871   -1.1132   16.9579 C   0  0  0  0  0  0  0  0  0  0  0  0
   17.8164   -1.3479   16.2113 C   0  0  0  0  0  0  0  0  0  0  0  0
   17.8846   -1.4709   14.8200 C   0  0  0  0  0  0  0  0  0  0  0  0
   19.1124   -1.3607   14.1622 C   0  0  0  0  0  0  0  0  0  0  0  0
   20.2808   -1.1276   14.8919 C   0  0  0  0  0  0  0  0  0  0  0  0
   20.2251   -1.0046   16.2849 C   0  0  0  0  0  0  0  0  0  0  0  0
   21.3633   -0.7791   16.9901 N   0  0  0  0  0  0  0  0  0  0  0  0
  1  2  1  0
  2  3  2  0
  3  4  1  0
  4  5  1  0
  4 17  2  0
  5  6  1  0
  6  7  1  0
  7  8  2  0
  8  9  1  0
  9 10  2  0
  9 11  1  0
 11 12  1  0
 12 13  2  0
 13 14  1  0
 14 15  1  0
 15 16  2  0
 15 11  1  0
 16  7  1  0
 17 18  1  0
 18 19  2  0
 19 20  1  0
 20 21  2  0
 21 22  1  0
 22 23  2  0
 22 17  1  0
 23  2  1  0
M  END
$$$$
FCG16952409_QVINA2_1
     RDKit          3D

 26 28  0  0  0  0  0  0  0  0999 V2000
    9.3060   -6.7550   21.2220 C   0  0  0  0  0  0  0  0  0  0  0  0
   10.0320   -7.1320   19.9730 C   0  0  0  0  0  0  0  0  0  0  0  0
    9.6090   -6.7220   18.8700 O   0  0  0  0  0  0  0  0  0  0  0  0
   11.1720   -7.9410   20.0970 N   0  0  0  0  0  0  0  0  0  0  0  0
   11.9520   -8.3680   18.9710 C   0  0  0  0  0  0  0  0  0  0  0  0
   12.9960   -7.3070   18.7070 C   0  0  0  0  0  0  0  0  0  0  0  0
   14.2660   -7.2610   19.2120 C   0  0  0  0  0  0  0  0  0  0  0  0
   14.8730   -6.1050   18.6940 C   0  0  0  0  0  0  0  0  0  0  0  0
   13.9350   -5.5000   17.8960 C   0  0  0  0  0  0  0  0  0  0  0  0
   14.0860   -4.2720   17.1460 C   0  0  0  0  0  0  0  0  0  0  0  0
   14.8840   -4.3130   16.1420 O   0  0  0  0  0  0  0  0  0  0  0  0
   13.4380   -3.0130   17.4130 C   0  0  0  0  0  0  0  0  0  0  0  0
   13.8350   -2.2650   18.5200 O   0  0  0  0  0  0  0  0  0  0  0  0
   14.4080   -1.0160   18.4550 C   0  0  0  0  0  0  0  0  0  0  0  0
   13.7120   -0.0120   18.6780 O   0  0  0  0  0  0  0  0  0  0  0  0
   15.8300   -0.8020   18.1290 C   0  0  0  0  0  0  0  0  0  0  0  0
   16.4350   -0.5630   16.9760 C   0  0  0  0  0  0  0  0  0  0  0  0
   17.7770   -0.4010   16.9430 C   0  0  0  0  0  0  0  0  0  0  0  0
   18.4510   -0.4920   18.1080 C   0  0  0  0  0  0  0  0  0  0  0  0
   17.1630   -0.8140   19.2810 S   0  0  0  0  0  0  0  0  0  0  0  0
   19.8430   -0.4000   18.5980 C   0  0  0  0  0  0  0  0  0  0  0  0
   20.7870   -1.1140   17.6640 C   0  0  0  0  0  0  0  0  0  0  0  0
   20.7940   -0.4100   16.3300 C   0  0  0  0  0  0  0  0  0  0  0  0
   19.6970   -0.9970   15.4860 C   0  0  0  0  0  0  0  0  0  0  0  0
   18.4800   -0.1230   15.6040 C   0  0  0  0  0  0  0  0  0  0  0  0
   12.8430   -6.2590   17.9420 O   0  0  0  0  0  0  0  0  0  0  0  0
  1  2  1  0
  2  3  2  0
  2  4  1  0
  4  5  1  0
  5  6  1  0
  6  7  2  0
  7  8  1  0
  8  9  2  0
  9 10  1  0
 10 11  2  0
 10 12  1  0
 12 13  1  0
 13 14  1  0
 14 15  2  0
 14 16  1  0
 16 17  2  0
 17 18  1  0
 18 19  2  0
 19 20  1  0
 19 21  1  0
 21 22  1  0
 22 23  1  0
 23 24  1  0
 24 25  1  0
  9 26  1  0
 26  6  1  0
 20 16  1  0
 25 18  1  0
M  END
$$$$
FCG16952409_QVINAW_1
     RDKit          3D

 26 28  0  0  0  0  0  0  0  0999 V2000
    9.2690   -6.8460   21.1740 C   0  0  0  0  0  0  0  0  0  0  0  0
   10.0530   -7.1380   19.9380 C   0  0  0  0  0  0  0  0  0  0  0  0
    9.6380   -6.7200   18.8350 O   0  0  0  0  0  0  0  0  0  0  0  0
   11.2380   -7.8790   20.0730 N   0  0  0  0  0  0  0  0  0  0  0  0
   12.0750   -8.2200   18.9600 C   0  0  0  0  0  0  0  0  0  0  0  0
   13.1230   -7.1380   18.8240 C   0  0  0  0  0  0  0  0  0  0  0  0
   14.2990   -7.0420   19.5180 C   0  0  0  0  0  0  0  0  0  0  0  0
   14.9510   -5.8850   19.0610 C   0  0  0  0  0  0  0  0  0  0  0  0
   14.1340   -5.3300   18.1080 C   0  0  0  0  0  0  0  0  0  0  0  0
   14.3710   -4.1210   17.3500 C   0  0  0  0  0  0  0  0  0  0  0  0
   14.7330   -4.2770   16.1300 O   0  0  0  0  0  0  0  0  0  0  0  0
   14.2460   -2.7670   17.8260 C   0  0  0  0  0  0  0  0  0  0  0  0
   15.1460   -2.2950   18.7780 O   0  0  0  0  0  0  0  0  0  0  0  0
   16.1820   -1.4280   18.5140 C   0  0  0  0  0  0  0  0  0  0  0  0
   17.3540   -1.8140   18.6520 O   0  0  0  0  0  0  0  0  0  0  0  0
   15.9700   -0.0380   18.0660 C   0  0  0  0  0  0  0  0  0  0  0  0
   15.2190    0.9330   18.5610 C   0  0  0  0  0  0  0  0  0  0  0  0
   15.1980    2.1410   17.9530 C   0  0  0  0  0  0  0  0  0  0  0  0
   15.9570    2.3040   16.8500 C   0  0  0  0  0  0  0  0  0  0  0  0
   16.7210    0.7160   16.6630 S   0  0  0  0  0  0  0  0  0  0  0  0
   16.2760    3.3600   15.8660 C   0  0  0  0  0  0  0  0  0  0  0  0
   15.0340    4.1190   15.4740 C   0  0  0  0  0  0  0  0  0  0  0  0
   14.5010    4.8550   16.6780 C   0  0  0  0  0  0  0  0  0  0  0  0
   13.5680    3.9330   17.4130 C   0  0  0  0  0  0  0  0  0  0  0  0
   14.3250    3.2690   18.5270 C   0  0  0  0  0  0  0  0  0  0  0  0
   13.0660   -6.1180   18.0110 O   0  0  0  0  0  0  0  0  0  0  0  0
  1  2  1  0
  2  3  2  0
  2  4  1  0
  4  5  1  0
  5  6  1  0
  6  7  2  0
  7  8  1  0
  8  9  2  0
  9 10  1  0
 10 11  2  0
 10 12  1  0
 12 13  1  0
 13 14  1  0
 14 15  2  0
 14 16  1  0
 16 17  2  0
 17 18  1  0
 18 19  2  0
 19 20  1  0
 19 21  1  0
 21 22  1  0
 22 23  1  0
 23 24  1  0
 24 25  1  0
  9 26  1  0
 26  6  1  0
 20 16  1  0
 25 18  1  0
M  END
$$$$
