FCG16141527
     RDKit          3D

 35 38  0  0  0  0  0  0  0  0999 V2000
   -3.5625    0.9454   -2.7325 C   0  0  0  0  0  0  0  0  0  0  0  0
   -3.1860    0.8692   -1.2861 C   0  0  0  0  0  0  0  0  0  0  0  0
   -1.8879    0.7409   -0.9849 N   0  0  0  0  0  0  0  0  0  0  0  0
   -1.5748    0.6460    0.3237 C   0  0  0  0  0  0  0  0  0  0  0  0
    0.1785    0.5118    0.6901 S   0  0  0  0  0  0  0  0  0  0  0  0
    0.8011   -0.0888   -0.9152 C   0  0  0  0  0  0  0  0  0  0  0  0
    2.2784   -0.4022   -0.7990 C   0  0  0  0  0  0  0  0  0  0  0  0
    3.1991    0.4707   -1.2435 C   0  0  0  0  0  0  0  0  0  0  0  0
    4.6351    0.1424   -1.1226 C   0  0  0  0  0  0  0  0  0  0  0  0
    5.4813    0.9358   -1.5243 O   0  0  0  0  0  0  0  0  0  0  0  0
    4.8898   -1.0775   -0.5497 N   0  0  0  0  0  0  0  0  0  0  0  0
    6.1463   -1.5996   -0.3317 C   0  0  0  0  0  0  0  0  0  0  0  0
    6.1383   -2.8131    0.2318 C   0  0  0  0  0  0  0  0  0  0  0  0
    4.5130   -3.3736    0.5205 S   0  0  0  0  0  0  0  0  0  0  0  0
    3.8539   -1.8906   -0.1522 C   0  0  0  0  0  0  0  0  0  0  0  0
    2.5959   -1.6299   -0.2516 N   0  0  0  0  0  0  0  0  0  0  0  0
   -2.5326    0.6801    1.3516 C   0  0  0  0  0  0  0  0  0  0  0  0
   -2.2792    0.5924    2.7490 C   0  0  0  0  0  0  0  0  0  0  0  0
   -3.3214    0.6344    3.6726 C   0  0  0  0  0  0  0  0  0  0  0  0
   -4.6256    0.7638    3.2194 C   0  0  0  0  0  0  0  0  0  0  0  0
   -4.8755    0.8499    1.8475 C   0  0  0  0  0  0  0  0  0  0  0  0
   -3.8531    0.8105    0.9067 C   0  0  0  0  0  0  0  0  0  0  0  0
   -4.1802    0.8991   -0.3869 N   0  0  0  0  0  0  0  0  0  0  0  0
   -4.3466    1.6938   -2.8822 H   0  0  0  0  0  0  0  0  0  0  0  0
   -2.7002    1.2244   -3.3458 H   0  0  0  0  0  0  0  0  0  0  0  0
   -3.9321   -0.0277   -3.0687 H   0  0  0  0  0  0  0  0  0  0  0  0
    0.6328    0.6780   -1.6799 H   0  0  0  0  0  0  0  0  0  0  0  0
    0.2569   -0.9906   -1.2184 H   0  0  0  0  0  0  0  0  0  0  0  0
    2.9519    1.4294   -1.6805 H   0  0  0  0  0  0  0  0  0  0  0  0
    7.0222   -1.0289   -0.6141 H   0  0  0  0  0  0  0  0  0  0  0  0
    7.0130   -3.3962    0.4856 H   0  0  0  0  0  0  0  0  0  0  0  0
   -1.2630    0.4875    3.1233 H   0  0  0  0  0  0  0  0  0  0  0  0
   -3.1131    0.5646    4.7371 H   0  0  0  0  0  0  0  0  0  0  0  0
   -5.4515    0.7976    3.9252 H   0  0  0  0  0  0  0  0  0  0  0  0
   -5.9024    0.9509    1.5018 H   0  0  0  0  0  0  0  0  0  0  0  0
  1  2  1  0
  2  3  2  0
  3  4  1  0
  4  5  1  0
  5  6  1  0
  6  7  1  0
  7  8  2  0
  8  9  1  0
  9 10  2  0
  9 11  1  0
 11 12  1  0
 12 13  2  0
 13 14  1  0
 14 15  1  0
 15 16  2  0
  4 17  2  0
 17 18  1  0
 18 19  2  0
 19 20  1  0
 20 21  2  0
 21 22  1  0
 22 23  2  0
 23  2  1  0
 16  7  1  0
 22 17  1  0
 15 11  1  0
  1 24  1  0
  1 25  1  0
  1 26  1  0
  6 27  1  0
  6 28  1  0
  8 29  1  0
 12 30  1  0
 13 31  1  0
 18 32  1  0
 19 33  1  0
 20 34  1  0
 21 35  1  0
M  END
$$$$
FCG16425532
     RDKit          3D

 30 31  0  0  0  0  0  0  0  0999 V2000
    1.8038   -1.2709   -0.8175 C   0  0  0  0  0  0  0  0  0  0  0  0
    2.7537   -0.2737   -0.3699 N   0  0  0  0  0  0  0  0  0  0  0  0
    4.0874   -0.3094   -0.7008 C   0  0  0  0  0  0  0  0  0  0  0  0
    4.7183    0.7323   -0.0662 C   0  0  0  0  0  0  0  0  0  0  0  0
    3.7306    1.4231    0.6670 C   0  0  0  0  0  0  0  0  0  0  0  0
    2.5011    0.8048    0.4608 C   0  0  0  0  0  0  0  0  0  0  0  0
    1.2435    1.2397    1.0384 C   0  0  0  0  0  0  0  0  0  0  0  0
    1.1314    2.1013    1.9022 O   0  0  0  0  0  0  0  0  0  0  0  0
    0.1877    0.5946    0.4716 O   0  0  0  0  0  0  0  0  0  0  0  0
   -1.0774    1.0059    0.9917 C   0  0  0  0  0  0  0  0  0  0  0  0
   -2.1605    0.3461    0.1687 C   0  0  0  0  0  0  0  0  0  0  0  0
   -2.9142    1.1254   -0.7263 C   0  0  0  0  0  0  0  0  0  0  0  0
   -3.9176    0.5482   -1.5064 C   0  0  0  0  0  0  0  0  0  0  0  0
   -4.1809   -0.8151   -1.4088 C   0  0  0  0  0  0  0  0  0  0  0  0
   -3.4374   -1.6052   -0.5326 C   0  0  0  0  0  0  0  0  0  0  0  0
   -2.4266   -1.0346    0.2550 C   0  0  0  0  0  0  0  0  0  0  0  0
   -1.6762   -1.8898    1.1308 C   0  0  0  0  0  0  0  0  0  0  0  0
   -1.0609   -2.5821    1.8301 N   0  0  0  0  0  0  0  0  0  0  0  0
    1.3199   -1.7090    0.0579 H   0  0  0  0  0  0  0  0  0  0  0  0
    2.3306   -2.0575   -1.3647 H   0  0  0  0  0  0  0  0  0  0  0  0
    1.0814   -0.7908   -1.4817 H   0  0  0  0  0  0  0  0  0  0  0  0
    4.4837   -1.0791   -1.3510 H   0  0  0  0  0  0  0  0  0  0  0  0
    5.7738    0.9653   -0.1211 H   0  0  0  0  0  0  0  0  0  0  0  0
    3.8835    2.2990    1.2870 H   0  0  0  0  0  0  0  0  0  0  0  0
   -1.1725    0.7108    2.0438 H   0  0  0  0  0  0  0  0  0  0  0  0
   -1.1758    2.0972    0.9309 H   0  0  0  0  0  0  0  0  0  0  0  0
   -2.7233    2.1931   -0.8239 H   0  0  0  0  0  0  0  0  0  0  0  0
   -4.4938    1.1650   -2.1927 H   0  0  0  0  0  0  0  0  0  0  0  0
   -4.9631   -1.2632   -2.0172 H   0  0  0  0  0  0  0  0  0  0  0  0
   -3.6501   -2.6714   -0.4694 H   0  0  0  0  0  0  0  0  0  0  0  0
  1  2  1  0
  2  3  1  0
  3  4  2  0
  4  5  1  0
  5  6  2  0
  6  7  1  0
  7  8  2  0
  7  9  1  0
  9 10  1  0
 10 11  1  0
 11 12  2  0
 12 13  1  0
 13 14  2  0
 14 15  1  0
 15 16  2  0
 16 17  1  0
 17 18  3  0
  6  2  1  0
 16 11  1  0
  1 19  1  0
  1 20  1  0
  1 21  1  0
  3 22  1  0
  4 23  1  0
  5 24  1  0
 10 25  1  0
 10 26  1  0
 12 27  1  0
 13 28  1  0
 14 29  1  0
 15 30  1  0
M  END
$$$$
FCG16600623
     RDKit          3D

 40 43  0  0  0  0  0  0  0  0999 V2000
    1.4243    3.2860    0.6950 C   0  0  0  0  0  0  0  0  0  0  0  0
    1.1520    2.1690   -0.3163 C   0  0  2  0  0  0  0  0  0  0  0  0
   -0.0601    1.5404    0.0401 O   0  0  0  0  0  0  0  0  0  0  0  0
   -1.2009    1.5589   -0.6971 C   0  0  0  0  0  0  0  0  0  0  0  0
   -1.1932    2.1856   -1.7944 O   0  0  0  0  0  0  0  0  0  0  0  0
   -2.4448    0.8770   -0.2665 C   0  0  0  0  0  0  0  0  0  0  0  0
   -2.7817    0.1498    0.8040 C   0  0  0  0  0  0  0  0  0  0  0  0
   -4.0370   -0.3354    0.8818 C   0  0  0  0  0  0  0  0  0  0  0  0
   -4.8959   -0.0695   -0.1167 C   0  0  0  0  0  0  0  0  0  0  0  0
   -3.9775    0.8992   -1.2524 S   0  0  0  0  0  0  0  0  0  0  0  0
   -6.2574   -0.6887    0.1246 C   0  0  0  0  0  0  0  0  0  0  0  0
   -5.7826   -1.8987    0.9447 C   0  0  0  0  0  0  0  0  0  0  0  0
   -4.8314   -1.1706    1.8691 C   0  0  0  0  0  0  0  0  0  0  0  0
    2.2955    1.2581   -0.3657 C   0  0  0  0  0  0  0  0  0  0  0  0
    2.2115    0.0564   -0.9588 N   0  0  0  0  0  0  0  0  0  0  0  0
    3.2370   -0.8107   -1.0267 C   0  0  0  0  0  0  0  0  0  0  0  0
    3.0820   -2.0456   -1.6590 C   0  0  0  0  0  0  0  0  0  0  0  0
    4.1560   -2.9071   -1.7081 C   0  0  0  0  0  0  0  0  0  0  0  0
    5.3669   -2.5603   -1.1436 C   0  0  0  0  0  0  0  0  0  0  0  0
    5.5241   -1.3514   -0.5229 C   0  0  0  0  0  0  0  0  0  0  0  0
    4.4540   -0.4817   -0.4685 C   0  0  0  0  0  0  0  0  0  0  0  0
    4.5447    0.7518    0.1418 C   0  0  0  0  0  0  0  0  0  0  0  0
    5.6522    1.0613    0.6545 O   0  0  0  0  0  0  0  0  0  0  0  0
    3.4775    1.5899    0.1822 N   0  0  0  0  0  0  0  0  0  0  0  0
    0.5061    3.7977    0.9778 H   0  0  0  0  0  0  0  0  0  0  0  0
    1.8499    2.8354    1.6166 H   0  0  0  0  0  0  0  0  0  0  0  0
    2.1709    3.9553    0.2347 H   0  0  0  0  0  0  0  0  0  0  0  0
    0.9970    2.6675   -1.2888 H   0  0  0  0  0  0  0  0  0  0  0  0
   -1.9966   -0.0237    1.5940 H   0  0  0  0  0  0  0  0  0  0  0  0
   -6.7383   -0.9898   -0.8028 H   0  0  0  0  0  0  0  0  0  0  0  0
   -6.8727   -0.0493    0.7855 H   0  0  0  0  0  0  0  0  0  0  0  0
   -6.6330   -2.3596    1.4725 H   0  0  0  0  0  0  0  0  0  0  0  0
   -5.2565   -2.5740    0.2565 H   0  0  0  0  0  0  0  0  0  0  0  0
   -4.2236   -1.8998    2.3971 H   0  0  0  0  0  0  0  0  0  0  0  0
   -5.4245   -0.4947    2.5144 H   0  0  0  0  0  0  0  0  0  0  0  0
    2.1313   -2.3037   -2.0955 H   0  0  0  0  0  0  0  0  0  0  0  0
    4.0845   -3.8794   -2.1892 H   0  0  0  0  0  0  0  0  0  0  0  0
    6.2204   -3.2313   -1.1763 H   0  0  0  0  0  0  0  0  0  0  0  0
    6.4458   -1.0230   -0.0629 H   0  0  0  0  0  0  0  0  0  0  0  0
    3.6240    2.5085    0.6629 H   0  0  0  0  0  0  0  0  0  0  0  0
  1  2  1  0
  2  3  1  0
  3  4  1  0
  4  5  2  0
  4  6  1  0
  6  7  2  0
  7  8  1  0
  8  9  2  0
  9 10  1  0
  9 11  1  0
 11 12  1  0
 12 13  1  0
  2 14  1  0
 14 15  2  0
 15 16  1  0
 16 17  2  0
 17 18  1  0
 18 19  2  0
 19 20  1  0
 20 21  2  0
 21 22  1  0
 22 23  2  0
 22 24  1  0
 10  6  1  0
 24 14  1  0
 13  8  1  0
 21 16  1  0
  1 25  1  0
  1 26  1  0
  1 27  1  0
  2 28  1  6
  7 29  1  0
 11 30  1  0
 11 31  1  0
 12 32  1  0
 12 33  1  0
 13 34  1  0
 13 35  1  0
 17 36  1  0
 18 37  1  0
 19 38  1  0
 20 39  1  0
 24 40  1  0
M  END
$$$$
FCG16952409
     RDKit          3D

 46 48  0  0  0  0  0  0  0  0999 V2000
    9.6314    0.9937    0.1105 C   0  0  0  0  0  0  0  0  0  0  0  0
    8.3600    1.7229    0.3644 C   0  0  0  0  0  0  0  0  0  0  0  0
    8.2501    2.9570    0.3114 O   0  0  0  0  0  0  0  0  0  0  0  0
    7.2089    0.9577    0.6855 N   0  0  0  0  0  2  0  0  0  0  0  0
    6.8411   -0.1087   -0.2304 C   0  0  0  0  0  0  0  0  0  0  0  0
    5.4695   -0.5694    0.1724 C   0  0  0  0  0  0  0  0  0  0  0  0
    5.2637   -1.5668    1.0804 C   0  0  0  0  0  0  0  0  0  0  0  0
    3.8946   -1.7034    1.1873 C   0  0  0  0  0  0  0  0  0  0  0  0
    3.3317   -0.7633    0.3215 C   0  0  0  0  0  0  0  0  0  0  0  0
    1.8964   -0.6072    0.1603 C   0  0  0  0  0  0  0  0  0  0  0  0
    1.4847    0.2650   -0.6415 O   0  0  0  0  0  0  0  0  0  0  0  0
    0.9084   -1.4265    0.8956 C   0  0  0  0  0  0  0  0  0  0  0  0
   -0.4085   -1.0961    0.5766 O   0  0  0  0  0  0  0  0  0  0  0  0
   -0.9649    0.1578    0.7677 C   0  0  0  0  0  0  0  0  0  0  0  0
   -0.2848    1.0722    1.2496 O   0  0  0  0  0  0  0  0  0  0  0  0
   -2.3444    0.3424    0.3863 C   0  0  0  0  0  0  0  0  0  0  0  0
   -3.2679   -0.4644   -0.1410 C   0  0  0  0  0  0  0  0  0  0  0  0
   -4.5052   -0.0193   -0.4013 C   0  0  0  0  0  0  0  0  0  0  0  0
   -4.7699    1.3078   -0.0968 C   0  0  0  0  0  0  0  0  0  0  0  0
   -3.2625    1.8851    0.5476 S   0  0  0  0  0  0  0  0  0  0  0  0
   -5.9696    2.1673   -0.2228 C   0  0  0  0  0  0  0  0  0  0  0  0
   -7.1980    1.3026   -0.3625 C   0  0  0  0  0  0  0  0  0  0  0  0
   -7.2387    0.1558    0.5891 C   0  0  0  0  0  0  0  0  0  0  0  0
   -6.6213   -1.1052    0.0694 C   0  0  0  0  0  0  0  0  0  0  0  0
   -5.6048   -0.8831   -1.0011 C   0  0  0  0  0  0  0  0  0  0  0  0
    4.3141   -0.1382   -0.2364 O   0  0  0  0  0  0  0  0  0  0  0  0
   10.2575    1.6441   -0.5327 H   0  0  0  0  0  0  0  0  0  0  0  0
   10.0987    0.7909    1.1029 H   0  0  0  0  0  0  0  0  0  0  0  0
    9.3684    0.0355   -0.3713 H   0  0  0  0  0  0  0  0  0  0  0  0
    7.5726   -0.9333   -0.1765 H   0  0  0  0  0  0  0  0  0  0  0  0
    6.7947    0.2356   -1.2823 H   0  0  0  0  0  0  0  0  0  0  0  0
    6.0272   -2.1409    1.6145 H   0  0  0  0  0  0  0  0  0  0  0  0
    3.3538   -2.3907    1.8077 H   0  0  0  0  0  0  0  0  0  0  0  0
    1.1052   -1.4117    1.9967 H   0  0  0  0  0  0  0  0  0  0  0  0
    1.0669   -2.4897    0.5795 H   0  0  0  0  0  0  0  0  0  0  0  0
   -2.9905   -1.5357   -0.3664 H   0  0  0  0  0  0  0  0  0  0  0  0
   -5.8616    2.7418   -1.1750 H   0  0  0  0  0  0  0  0  0  0  0  0
   -6.0625    2.8845    0.6173 H   0  0  0  0  0  0  0  0  0  0  0  0
   -7.3392    1.0388   -1.4187 H   0  0  0  0  0  0  0  0  0  0  0  0
   -8.0709    1.9723   -0.1039 H   0  0  0  0  0  0  0  0  0  0  0  0
   -6.7678    0.4984    1.5529 H   0  0  0  0  0  0  0  0  0  0  0  0
   -8.3089   -0.0717    0.8152 H   0  0  0  0  0  0  0  0  0  0  0  0
   -7.3878   -1.8410   -0.2358 H   0  0  0  0  0  0  0  0  0  0  0  0
   -6.0841   -1.5820    0.9356 H   0  0  0  0  0  0  0  0  0  0  0  0
   -5.9986   -0.4166   -1.9103 H   0  0  0  0  0  0  0  0  0  0  0  0
   -5.1870   -1.8644   -1.2941 H   0  0  0  0  0  0  0  0  0  0  0  0
  1  2  1  0
  2  3  2  0
  2  4  1  0
  4  5  1  0
  5  6  1  0
  6  7  2  0
  7  8  1  0
  8  9  2  0
  9 10  1  0
 10 11  2  0
 10 12  1  0
 12 13  1  0
 13 14  1  0
 14 15  2  0
 14 16  1  0
 16 17  2  0
 17 18  1  0
 18 19  2  0
 19 20  1  0
 19 21  1  0
 21 22  1  0
 22 23  1  0
 23 24  1  0
 24 25  1  0
  9 26  1  0
 26  6  1  0
 20 16  1  0
 25 18  1  0
  1 27  1  0
  1 28  1  0
  1 29  1  0
  5 30  1  0
  5 31  1  0
  7 32  1  0
  8 33  1  0
 12 34  1  0
 12 35  1  0
 17 36  1  0
 21 37  1  0
 21 38  1  0
 22 39  1  0
 22 40  1  0
 23 41  1  0
 23 42  1  0
 24 43  1  0
 24 44  1  0
 25 45  1  0
 25 46  1  0
M  CHG  1   4  -1
M  END
$$$$
FCG17274676
     RDKit          3D

 47 50  0  0  0  0  0  0  0  0999 V2000
   -2.9503   -2.1757   -3.0338 C   0  0  0  0  0  0  0  0  0  0  0  0
   -2.7511   -2.3051   -1.5292 C   0  0  0  0  0  0  0  0  0  0  0  0
   -1.8467   -1.2856   -0.9860 N   0  0  0  0  0  0  0  0  0  0  0  0
   -0.4648   -1.4660   -1.1312 C   0  0  0  0  0  0  0  0  0  0  0  0
    0.0033   -2.4547   -1.7009 O   0  0  0  0  0  0  0  0  0  0  0  0
    0.4351   -0.3951   -0.4900 C   0  0  0  0  0  0  0  0  0  0  0  0
    1.7786   -0.8557   -0.3847 O   0  0  0  0  0  0  0  0  0  0  0  0
    2.6910   -0.0016    0.1693 C   0  0  0  0  0  0  0  0  0  0  0  0
    2.4252    1.2761    0.6609 C   0  0  0  0  0  0  0  0  0  0  0  0
    3.4561    2.0466    1.2052 C   0  0  0  0  0  0  0  0  0  0  0  0
    4.7594    1.5483    1.2634 C   0  0  0  0  0  0  0  0  0  0  0  0
    5.0354    0.2661    0.7725 C   0  0  0  0  0  0  0  0  0  0  0  0
    6.3459   -0.2660    0.8187 N   0  0  0  0  0  0  0  0  0  0  0  0
    7.5005    0.2987    1.3012 C   0  0  0  0  0  0  0  0  0  0  0  0
    8.4965   -0.5435    1.1493 N   0  0  0  0  0  0  0  0  0  0  0  0
    7.9544   -1.6548    0.5613 N   0  0  0  0  0  0  0  0  0  0  0  0
    6.6540   -1.4994    0.3562 N   0  0  0  0  0  0  0  0  0  0  0  0
    3.9955   -0.5028    0.2269 C   0  0  0  0  0  0  0  0  0  0  0  0
   -2.4313   -0.0337   -0.6431 C   0  0  0  0  0  0  0  0  0  0  0  0
   -2.2606    1.0437   -1.5244 C   0  0  0  0  0  0  0  0  0  0  0  0
   -2.8441    2.2749   -1.2479 C   0  0  0  0  0  0  0  0  0  0  0  0
   -3.6027    2.4379   -0.0906 C   0  0  0  0  0  0  0  0  0  0  0  0
   -3.7851    1.3773    0.8110 C   0  0  0  0  0  0  0  0  0  0  0  0
   -4.5446    1.5624    1.9782 C   0  0  0  0  0  0  0  0  0  0  0  0
   -4.7182    0.5256    2.8942 C   0  0  0  0  0  0  0  0  0  0  0  0
   -4.1298   -0.7099    2.6585 C   0  0  0  0  0  0  0  0  0  0  0  0
   -3.3746   -0.9109    1.5016 C   0  0  0  0  0  0  0  0  0  0  0  0
   -3.1944    0.1168    0.5460 C   0  0  0  0  0  0  0  0  0  0  0  0
   -3.6022   -2.9757   -3.3982 H   0  0  0  0  0  0  0  0  0  0  0  0
   -3.4146   -1.2182   -3.2900 H   0  0  0  0  0  0  0  0  0  0  0  0
   -1.9991   -2.2401   -3.5712 H   0  0  0  0  0  0  0  0  0  0  0  0
   -3.7223   -2.2505   -1.0252 H   0  0  0  0  0  0  0  0  0  0  0  0
   -2.3304   -3.2927   -1.3060 H   0  0  0  0  0  0  0  0  0  0  0  0
    0.0483   -0.1773    0.5120 H   0  0  0  0  0  0  0  0  0  0  0  0
    0.4105    0.4910   -1.1324 H   0  0  0  0  0  0  0  0  0  0  0  0
    1.4279    1.7040    0.6389 H   0  0  0  0  0  0  0  0  0  0  0  0
    3.2387    3.0420    1.5873 H   0  0  0  0  0  0  0  0  0  0  0  0
    5.5247    2.1858    1.6961 H   0  0  0  0  0  0  0  0  0  0  0  0
    7.5660    1.2827    1.7353 H   0  0  0  0  0  0  0  0  0  0  0  0
    4.1797   -1.5037   -0.1630 H   0  0  0  0  0  0  0  0  0  0  0  0
   -1.6992    0.9193   -2.4478 H   0  0  0  0  0  0  0  0  0  0  0  0
   -2.7206    3.1052   -1.9388 H   0  0  0  0  0  0  0  0  0  0  0  0
   -4.0557    3.4084    0.1048 H   0  0  0  0  0  0  0  0  0  0  0  0
   -5.0076    2.5249    2.1870 H   0  0  0  0  0  0  0  0  0  0  0  0
   -5.3076    0.6864    3.7932 H   0  0  0  0  0  0  0  0  0  0  0  0
   -4.2537   -1.5192    3.3737 H   0  0  0  0  0  0  0  0  0  0  0  0
   -2.9155   -1.8864    1.3538 H   0  0  0  0  0  0  0  0  0  0  0  0
  1  2  1  0
  2  3  1  0
  3  4  1  0
  4  5  2  0
  4  6  1  0
  6  7  1  0
  7  8  1  0
  8  9  2  0
  9 10  1  0
 10 11  2  0
 11 12  1  0
 12 13  1  0
 13 14  1  0
 14 15  2  0
 15 16  1  0
 16 17  2  0
 12 18  2  0
  3 19  1  0
 19 20  2  0
 20 21  1  0
 21 22  2  0
 22 23  1  0
 23 24  2  0
 24 25  1  0
 25 26  2  0
 26 27  1  0
 27 28  2  0
 18  8  1  0
 28 19  1  0
 17 13  1  0
 28 23  1  0
  1 29  1  0
  1 30  1  0
  1 31  1  0
  2 32  1  0
  2 33  1  0
  6 34  1  0
  6 35  1  0
  9 36  1  0
 10 37  1  0
 11 38  1  0
 14 39  1  0
 18 40  1  0
 20 41  1  0
 21 42  1  0
 22 43  1  0
 24 44  1  0
 25 45  1  0
 26 46  1  0
 27 47  1  0
M  END
$$$$
FCG17585042
     RDKit          3D

 40 43  0  0  0  0  0  0  0  0999 V2000
   -0.1259    0.4789   -1.6540 C   0  0  0  0  0  0  0  0  0  0  0  0
   -0.6449   -0.5383   -0.7933 N   0  0  0  0  0  0  0  0  0  0  0  0
   -1.7715   -0.4079   -0.0344 C   0  0  0  0  0  0  0  0  0  0  0  0
   -2.5904    0.8196    0.0014 C   0  0  0  0  0  0  0  0  0  0  0  0
   -3.9784    0.4990    0.3754 C   0  0  0  0  0  0  0  0  0  0  0  0
   -4.5069    0.8420    1.6275 C   0  0  0  0  0  0  0  0  0  0  0  0
   -5.8053    0.5401    1.9478 C   0  0  0  0  0  0  0  0  0  0  0  0
   -6.6381   -0.1164    1.0394 C   0  0  0  0  0  0  0  0  0  0  0  0
   -6.1255   -0.4542   -0.1858 C   0  0  0  0  0  0  0  0  0  0  0  0
   -4.8251   -0.1435   -0.4851 C   0  0  0  0  0  0  0  0  0  0  0  0
   -1.9462   -1.5775    0.5926 N   0  0  0  0  0  0  0  0  0  0  0  0
   -0.9892   -2.3969    0.2537 N   0  0  0  0  0  0  0  0  0  0  0  0
   -0.1639   -1.7550   -0.6139 C   0  0  0  0  0  0  0  0  0  0  0  0
    1.3335   -2.5435   -1.1986 S   0  0  0  0  0  0  0  0  0  0  0  0
    2.4924   -1.4018   -1.9494 C   0  0  0  0  0  0  0  0  0  0  0  0
    3.2926   -0.6298   -0.9262 C   0  0  0  0  0  0  0  0  0  0  0  0
    4.5718   -0.3914   -1.2122 N   0  0  0  0  0  0  0  0  0  0  0  0
    5.4094    0.2671   -0.3198 C   0  0  0  0  0  0  0  0  0  0  0  0
    6.6928    0.5643   -0.5247 C   0  0  0  0  0  0  0  0  0  0  0  0
    7.4178    1.2243    0.4075 C   0  0  0  0  0  0  0  0  0  0  0  0
    6.1031    1.4486    1.7361 S   0  0  0  0  0  0  0  0  0  0  0  0
    4.7854    0.6183    0.8306 C   0  0  0  0  0  0  0  0  0  0  0  0
    3.4703    0.3700    1.1266 C   0  0  0  0  0  0  0  0  0  0  0  0
    2.9863    0.7251    2.2098 O   0  0  0  0  0  0  0  0  0  0  0  0
    2.6822   -0.2828    0.2099 N   0  0  0  0  0  0  0  0  0  0  0  0
   -0.7698    1.3935   -1.6297 H   0  0  0  0  0  0  0  0  0  0  0  0
    0.8675    0.8478   -1.3550 H   0  0  0  0  0  0  0  0  0  0  0  0
   -0.0925    0.1680   -2.7491 H   0  0  0  0  0  0  0  0  0  0  0  0
   -2.6486    1.2190   -1.0539 H   0  0  0  0  0  0  0  0  0  0  0  0
   -2.1514    1.6026    0.6610 H   0  0  0  0  0  0  0  0  0  0  0  0
   -3.8978    1.3463    2.3443 H   0  0  0  0  0  0  0  0  0  0  0  0
   -6.2322    0.8033    2.9203 H   0  0  0  0  0  0  0  0  0  0  0  0
   -7.6639   -0.3421    1.2938 H   0  0  0  0  0  0  0  0  0  0  0  0
   -6.7444   -0.9617   -0.9032 H   0  0  0  0  0  0  0  0  0  0  0  0
   -4.4672   -0.4388   -1.4799 H   0  0  0  0  0  0  0  0  0  0  0  0
    3.2575   -2.0355   -2.4933 H   0  0  0  0  0  0  0  0  0  0  0  0
    2.0780   -0.7500   -2.7199 H   0  0  0  0  0  0  0  0  0  0  0  0
    7.2647    0.2964   -1.4872 H   0  0  0  0  0  0  0  0  0  0  0  0
    8.3701    1.5723    0.5306 H   0  0  0  0  0  0  0  0  0  0  0  0
    1.7035   -0.4796    0.4335 H   0  0  0  0  0  0  0  0  0  0  0  0
  1  2  1  0
  2  3  1  0
  3  4  1  0
  4  5  1  0
  5  6  2  0
  6  7  1  0
  7  8  2  0
  8  9  1  0
  9 10  2  0
  3 11  2  0
 11 12  1  0
 12 13  2  0
 13 14  1  0
 14 15  1  0
 15 16  1  0
 16 17  2  0
 17 18  1  0
 18 19  1  0
 19 20  2  0
 20 21  1  0
 21 22  1  0
 22 23  1  0
 23 24  2  0
 23 25  1  0
 13  2  1  0
 25 16  1  0
 10  5  1  0
 22 18  2  0
  1 26  1  0
  1 27  1  0
  1 28  1  0
  4 29  1  0
  4 30  1  0
  6 31  1  0
  7 32  1  0
  8 33  1  0
  9 34  1  0
 10 35  1  0
 15 36  1  0
 15 37  1  0
 19 38  1  0
 20 39  1  0
 25 40  1  0
M  END
$$$$
FCG17822054
     RDKit          3D

 37 39  0  0  0  0  0  0  0  0999 V2000
    7.6690    2.2693    2.9356 N   0  0  0  0  0  0  0  0  0  0  0  0
    6.9184    1.7077    2.2037 C   0  0  0  0  0  0  0  0  0  0  0  0
    6.0242    1.0112    1.3130 C   0  0  0  0  0  0  0  0  0  0  0  0
    6.2668    1.0713   -0.0142 C   0  0  0  0  0  0  0  0  0  0  0  0
    5.4547    0.4432   -0.9378 C   0  0  0  0  0  0  0  0  0  0  0  0
    4.3467   -0.2727   -0.4401 C   0  0  0  0  0  0  0  0  0  0  0  0
    3.4189   -0.9066   -1.4594 C   0  0  0  0  0  0  0  0  0  0  0  0
    2.0698    0.2824   -1.6998 S   0  0  0  0  0  0  0  0  0  0  0  0
    0.4800   -0.5385   -1.5771 C   0  0  0  0  0  0  0  0  0  0  0  0
    0.2207   -1.8312   -1.4108 N   0  0  0  0  0  0  0  0  0  0  0  0
   -1.0963   -1.9788   -1.3823 N   0  0  0  0  0  0  0  0  0  0  0  0
   -1.6458   -0.7862   -1.5274 C   0  0  0  0  0  0  0  0  0  0  0  0
   -3.0582   -0.3179   -1.5782 C   0  0  0  0  0  0  0  0  0  0  0  0
   -3.5933   -0.0641   -0.2759 N   0  0  0  0  0  0  0  0  0  0  0  0
   -4.3019    1.2065   -0.1756 C   0  0  0  0  0  0  0  0  0  0  0  0
   -5.7634    0.9368   -0.3575 C   0  0  0  0  0  0  0  0  0  0  0  0
   -5.9061   -0.4366    0.2594 C   0  0  0  0  0  0  0  0  0  0  0  0
   -4.5861   -1.0842    0.0292 C   0  0  0  0  0  0  0  0  0  0  0  0
   -0.6617    0.0683   -1.6433 O   0  0  0  0  0  0  0  0  0  0  0  0
    4.0918   -0.3439    0.8817 C   0  0  0  0  0  0  0  0  0  0  0  0
    4.9202    0.2927    1.7822 C   0  0  0  0  0  0  0  0  0  0  0  0
    7.1328    1.6357   -0.3926 H   0  0  0  0  0  0  0  0  0  0  0  0
    5.6508    0.4997   -1.9893 H   0  0  0  0  0  0  0  0  0  0  0  0
    4.0111   -1.1206   -2.3478 H   0  0  0  0  0  0  0  0  0  0  0  0
    3.0631   -1.8601   -1.0025 H   0  0  0  0  0  0  0  0  0  0  0  0
   -3.1339    0.4873   -2.3094 H   0  0  0  0  0  0  0  0  0  0  0  0
   -3.6258   -1.1842   -2.0431 H   0  0  0  0  0  0  0  0  0  0  0  0
   -3.8789    1.9856   -0.8233 H   0  0  0  0  0  0  0  0  0  0  0  0
   -4.1911    1.5058    0.9180 H   0  0  0  0  0  0  0  0  0  0  0  0
   -6.3909    1.6471    0.2526 H   0  0  0  0  0  0  0  0  0  0  0  0
   -6.1189    0.9939   -1.4050 H   0  0  0  0  0  0  0  0  0  0  0  0
   -6.0808   -0.2880    1.3535 H   0  0  0  0  0  0  0  0  0  0  0  0
   -6.7655   -0.9591   -0.2001 H   0  0  0  0  0  0  0  0  0  0  0  0
   -4.2206   -1.7209    0.8636 H   0  0  0  0  0  0  0  0  0  0  0  0
   -4.7144   -1.7228   -0.8950 H   0  0  0  0  0  0  0  0  0  0  0  0
    3.2305   -0.8997    1.2804 H   0  0  0  0  0  0  0  0  0  0  0  0
    4.7641    0.2716    2.8511 H   0  0  0  0  0  0  0  0  0  0  0  0
  1  2  3  0
  2  3  1  0
  3  4  2  0
  4  5  1  0
  5  6  2  0
  6  7  1  0
  7  8  1  0
  8  9  1  0
  9 10  2  0
 10 11  1  0
 11 12  2  0
 12 13  1  0
 13 14  1  0
 14 15  1  0
 15 16  1  0
 16 17  1  0
 17 18  1  0
 12 19  1  0
  6 20  1  0
 20 21  2  0
 21  3  1  0
 19  9  1  0
 18 14  1  0
  4 22  1  0
  5 23  1  0
  7 24  1  0
  7 25  1  0
 13 26  1  0
 13 27  1  0
 15 28  1  0
 15 29  1  0
 16 30  1  0
 16 31  1  0
 17 32  1  0
 17 33  1  0
 18 34  1  0
 18 35  1  0
 20 36  1  0
 21 37  1  0
M  END
$$$$
FCG18066182
     RDKit          3D

 35 36  0  0  0  0  0  0  0  0999 V2000
   -4.6872    2.0359    0.0746 C   0  0  0  0  0  0  0  0  0  0  0  0
   -4.4345    0.5915    0.2350 C   0  0  0  0  0  0  0  0  0  0  0  0
   -5.2904   -0.3699    0.6463 N   0  0  0  0  0  0  0  0  0  0  0  0
   -4.6971   -1.5297    0.6591 O   0  0  0  0  0  0  0  0  0  0  0  0
   -3.4542   -1.4107    0.2703 C   0  0  0  0  0  0  0  0  0  0  0  0
   -2.4569   -2.4977    0.1512 C   0  0  0  0  0  0  0  0  0  0  0  0
   -3.2421   -0.0804   -0.0097 C   0  0  0  0  0  0  0  0  0  0  0  0
   -2.0255    0.6003   -0.4823 C   0  0  0  0  0  0  0  0  0  0  0  0
   -1.3021    1.4812    0.9400 S   0  0  0  0  0  0  0  0  0  0  0  0
    0.1865    2.3175    0.3593 C   0  0  0  0  0  0  0  0  0  0  0  0
    1.2359    1.3747   -0.0462 C   0  0  0  0  0  0  0  0  0  0  0  0
    1.2744    0.9783   -1.2600 O   0  0  0  0  0  0  0  0  0  0  0  0
    2.2375    0.8489    0.8059 N   0  0  0  0  0  0  0  0  0  0  0  0
    3.2221   -0.0628    0.3350 C   0  0  0  0  0  0  0  0  0  0  0  0
    3.0443   -1.4262    0.3548 C   0  0  0  0  0  0  0  0  0  0  0  0
    4.0590   -2.2544   -0.1261 C   0  0  0  0  0  0  0  0  0  0  0  0
    5.2440   -1.7591   -0.6253 C   0  0  0  0  0  0  0  0  0  0  0  0
    5.4076   -0.3897   -0.6386 C   0  0  0  0  0  0  0  0  0  0  0  0
    4.4000    0.4567   -0.1600 C   0  0  0  0  0  0  0  0  0  0  0  0
   -5.5306    2.1725   -0.6365 H   0  0  0  0  0  0  0  0  0  0  0  0
   -3.7571    2.5237   -0.2541 H   0  0  0  0  0  0  0  0  0  0  0  0
   -4.9260    2.4544    1.0760 H   0  0  0  0  0  0  0  0  0  0  0  0
   -2.9584   -3.4881    0.0074 H   0  0  0  0  0  0  0  0  0  0  0  0
   -1.7655   -2.5307    1.0240 H   0  0  0  0  0  0  0  0  0  0  0  0
   -1.8054   -2.3775   -0.7525 H   0  0  0  0  0  0  0  0  0  0  0  0
   -1.2441   -0.1165   -0.8272 H   0  0  0  0  0  0  0  0  0  0  0  0
   -2.3280    1.3097   -1.2888 H   0  0  0  0  0  0  0  0  0  0  0  0
    0.5015    3.0305    1.1532 H   0  0  0  0  0  0  0  0  0  0  0  0
   -0.0274    2.9686   -0.5365 H   0  0  0  0  0  0  0  0  0  0  0  0
    2.2316    1.1541    1.8030 H   0  0  0  0  0  0  0  0  0  0  0  0
    2.1181   -1.8046    0.7453 H   0  0  0  0  0  0  0  0  0  0  0  0
    3.8630   -3.3197   -0.0856 H   0  0  0  0  0  0  0  0  0  0  0  0
    6.0284   -2.4231   -0.9982 H   0  0  0  0  0  0  0  0  0  0  0  0
    6.3415    0.0037   -1.0320 H   0  0  0  0  0  0  0  0  0  0  0  0
    4.5373    1.5383   -0.1740 H   0  0  0  0  0  0  0  0  0  0  0  0
  1  2  1  0
  2  3  2  0
  3  4  1  0
  4  5  1  0
  5  6  1  0
  5  7  2  0
  7  8  1  0
  8  9  1  0
  9 10  1  0
 10 11  1  0
 11 12  2  0
 11 13  1  0
 13 14  1  0
 14 15  2  0
 15 16  1  0
 16 17  2  0
 17 18  1  0
 18 19  2  0
  7  2  1  0
 19 14  1  0
  1 20  1  0
  1 21  1  0
  1 22  1  0
  6 23  1  0
  6 24  1  0
  6 25  1  0
  8 26  1  0
  8 27  1  0
 10 28  1  0
 10 29  1  0
 13 30  1  0
 15 31  1  0
 16 32  1  0
 17 33  1  0
 18 34  1  0
 19 35  1  0
M  END
$$$$
FCG18472628
     RDKit          3D

 46 48  0  0  0  0  0  0  0  0999 V2000
   -4.0063   -0.0070    1.5533 C   0  0  0  0  0  0  0  0  0  0  0  0
   -4.4574    0.1059    0.0984 C   0  0  2  0  0  0  0  0  0  0  0  0
   -4.5721   -1.2867   -0.4445 C   0  0  0  0  0  0  0  0  0  0  0  0
   -4.4405   -1.3918   -1.9284 C   0  0  0  0  0  0  0  0  0  0  0  0
   -3.2252   -0.7099   -2.4655 C   0  0  0  0  0  0  0  0  0  0  0  0
   -2.4778   -0.0331   -1.3131 C   0  0  1  0  0  0  0  0  0  0  0  0
   -1.2572    0.5876   -1.7683 N   0  0  0  0  0  0  0  0  0  0  0  0
    0.0107    0.1495   -1.3163 C   0  0  0  0  0  0  0  0  0  0  0  0
    0.1373   -0.7978   -0.4991 O   0  0  0  0  0  0  0  0  0  0  0  0
    1.2502    0.8067   -1.8019 C   0  0  0  0  0  0  0  0  0  0  0  0
    2.4248    0.2236   -1.2328 N   0  0  0  0  0  0  0  0  0  0  0  0
    3.0847   -0.7866   -1.7659 N   0  0  0  0  0  0  0  0  0  0  0  0
    4.1088   -1.0840   -1.0058 N   0  0  0  0  0  0  0  0  0  0  0  0
    4.1246   -0.2598    0.0414 C   0  0  0  0  0  0  0  0  0  0  0  0
    5.0759   -0.2300    1.1300 C   0  0  0  0  0  0  0  0  0  0  0  0
    4.9482    0.7067    2.1553 C   0  0  0  0  0  0  0  0  0  0  0  0
    5.8477    0.7438    3.1954 C   0  0  0  0  0  0  0  0  0  0  0  0
    6.9065   -0.1319    3.2751 C   0  0  0  0  0  0  0  0  0  0  0  0
    7.0351   -1.0598    2.2618 C   0  0  0  0  0  0  0  0  0  0  0  0
    6.1421   -1.1077    1.2154 C   0  0  0  0  0  0  0  0  0  0  0  0
    6.3375   -2.3976   -0.1758 Br  0  0  0  0  0  0  0  0  0  0  0  0
    3.0752    0.5534   -0.1021 N   0  0  0  0  0  0  0  0  0  0  0  0
   -3.4378    0.9144   -0.6746 C   0  0  2  0  0  0  0  0  0  0  0  0
   -2.7738    1.9708    0.1640 C   0  0  0  0  0  0  0  0  0  0  0  0
   -2.9121    0.0857    1.6376 H   0  0  0  0  0  0  0  0  0  0  0  0
   -4.2846   -0.9770    1.9938 H   0  0  0  0  0  0  0  0  0  0  0  0
   -4.5338    0.7683    2.1831 H   0  0  0  0  0  0  0  0  0  0  0  0
   -5.4535    0.6176    0.1207 H   0  0  0  0  0  0  0  0  0  0  0  0
   -3.8101   -1.9760    0.0233 H   0  0  0  0  0  0  0  0  0  0  0  0
   -5.5607   -1.6841   -0.1325 H   0  0  0  0  0  0  0  0  0  0  0  0
   -5.3824   -1.0390   -2.4292 H   0  0  0  0  0  0  0  0  0  0  0  0
   -4.3616   -2.4687   -2.1827 H   0  0  0  0  0  0  0  0  0  0  0  0
   -3.4922    0.1217   -3.1624 H   0  0  0  0  0  0  0  0  0  0  0  0
   -2.5052   -1.4228   -2.9183 H   0  0  0  0  0  0  0  0  0  0  0  0
   -2.2347   -0.8434   -0.6032 H   0  0  0  0  0  0  0  0  0  0  0  0
   -1.3322    1.3765   -2.4467 H   0  0  0  0  0  0  0  0  0  0  0  0
    1.2310    1.9102   -1.5912 H   0  0  0  0  0  0  0  0  0  0  0  0
    1.2881    0.7275   -2.9253 H   0  0  0  0  0  0  0  0  0  0  0  0
    4.1102    1.3844    2.0737 H   0  0  0  0  0  0  0  0  0  0  0  0
    5.7357    1.4721    3.9783 H   0  0  0  0  0  0  0  0  0  0  0  0
    7.6054   -0.0864    4.1042 H   0  0  0  0  0  0  0  0  0  0  0  0
    7.8823   -1.7565    2.3300 H   0  0  0  0  0  0  0  0  0  0  0  0
   -4.0077    1.4371   -1.4833 H   0  0  0  0  0  0  0  0  0  0  0  0
   -3.5127    2.4432    0.8427 H   0  0  0  0  0  0  0  0  0  0  0  0
   -2.4182    2.8056   -0.5057 H   0  0  0  0  0  0  0  0  0  0  0  0
   -1.9120    1.6253    0.7359 H   0  0  0  0  0  0  0  0  0  0  0  0
  1  2  1  0
  2  3  1  0
  3  4  1  0
  4  5  1  0
  5  6  1  0
  6  7  1  0
  7  8  1  0
  8  9  2  0
  8 10  1  0
 10 11  1  0
 11 12  1  0
 12 13  2  0
 13 14  1  0
 14 15  1  0
 15 16  2  0
 16 17  1  0
 17 18  2  0
 18 19  1  0
 19 20  2  0
 20 21  1  0
 14 22  2  0
  6 23  1  0
 23 24  1  0
 23  2  1  0
 22 11  1  0
 20 15  1  0
  1 25  1  0
  1 26  1  0
  1 27  1  0
  2 28  1  1
  3 29  1  0
  3 30  1  0
  4 31  1  0
  4 32  1  0
  5 33  1  0
  5 34  1  0
  6 35  1  1
  7 36  1  0
 10 37  1  0
 10 38  1  0
 16 39  1  0
 17 40  1  0
 18 41  1  0
 19 42  1  0
 23 43  1  6
 24 44  1  0
 24 45  1  0
 24 46  1  0
M  END
$$$$
