FCG18066182
     RDKit          3D

 34 35  0  0  0  0  0  0  0  0999 V2000
    2.7469   -0.8527   -1.3086 C   0  0  0  0  0  0  0  0  0  0  0  0
    1.6445   -0.9835   -2.3093 C   0  0  0  0  0  0  0  0  0  0  0  0
    1.5360   -0.2051   -3.4040 N   0  0  0  0  0  0  0  0  0  0  0  0
    0.4661   -0.5869   -4.0406 O   0  0  0  0  0  0  0  0  0  0  0  0
   -0.1314   -1.5761   -3.4172 C   0  0  0  0  0  0  0  0  0  0  0  0
   -1.3909   -2.2250   -3.8885 C   0  0  0  0  0  0  0  0  0  0  0  0
    0.5822   -1.8702   -2.2699 C   0  0  0  0  0  0  0  0  0  0  0  0
    0.2838   -2.9260   -1.2435 C   0  0  0  0  0  0  0  0  0  0  0  0
   -1.3159   -2.6127   -0.4124 S   0  0  0  0  0  0  0  0  0  0  0  0
   -0.7737   -1.2084    0.6288 C   0  0  0  0  0  0  0  0  0  0  0  0
   -1.3759    0.0779    0.1369 C   0  0  0  0  0  0  0  0  0  0  0  0
   -1.3072    0.3665   -1.0866 O   0  0  0  0  0  0  0  0  0  0  0  0
   -2.0599    0.9777    1.0185 N   0  0  0  0  0  2  0  0  0  0  0  0
   -1.8200    1.1410    2.4231 C   0  0  0  0  0  0  0  0  0  0  0  0
   -0.5411    0.9571    2.9793 C   0  0  0  0  0  0  0  0  0  0  0  0
   -0.3348    1.1565    4.3481 C   0  0  0  0  0  0  0  0  0  0  0  0
   -1.3957    1.5555    5.1658 C   0  0  0  0  0  0  0  0  0  0  0  0
   -2.6622    1.7658    4.6137 C   0  0  0  0  0  0  0  0  0  0  0  0
   -2.8712    1.5682    3.2451 C   0  0  0  0  0  0  0  0  0  0  0  0
    3.1788   -1.8506   -1.0860 H   0  0  0  0  0  0  0  0  0  0  0  0
    3.5510   -0.2021   -1.7120 H   0  0  0  0  0  0  0  0  0  0  0  0
    2.3563   -0.3988   -0.3754 H   0  0  0  0  0  0  0  0  0  0  0  0
   -1.3124   -3.3273   -3.7884 H   0  0  0  0  0  0  0  0  0  0  0  0
   -1.5683   -1.9736   -4.9546 H   0  0  0  0  0  0  0  0  0  0  0  0
   -2.2459   -1.8589   -3.2838 H   0  0  0  0  0  0  0  0  0  0  0  0
    1.0959   -2.9983   -0.4912 H   0  0  0  0  0  0  0  0  0  0  0  0
    0.2221   -3.9087   -1.7554 H   0  0  0  0  0  0  0  0  0  0  0  0
    0.3290   -1.1136    0.6605 H   0  0  0  0  0  0  0  0  0  0  0  0
   -1.1241   -1.4213    1.6594 H   0  0  0  0  0  0  0  0  0  0  0  0
    0.2998    0.6846    2.3564 H   0  0  0  0  0  0  0  0  0  0  0  0
    0.6499    1.0123    4.7731 H   0  0  0  0  0  0  0  0  0  0  0  0
   -1.2342    1.7112    6.2248 H   0  0  0  0  0  0  0  0  0  0  0  0
   -3.4815    2.0842    5.2452 H   0  0  0  0  0  0  0  0  0  0  0  0
   -3.8546    1.7379    2.8249 H   0  0  0  0  0  0  0  0  0  0  0  0
  1  2  1  0
  2  3  2  0
  3  4  1  0
  4  5  1  0
  5  6  1  0
  5  7  2  0
  7  8  1  0
  8  9  1  0
  9 10  1  0
 10 11  1  0
 11 12  2  0
 11 13  1  0
 13 14  1  0
 14 15  2  0
 15 16  1  0
 16 17  2  0
 17 18  1  0
 18 19  2  0
  7  2  1  0
 19 14  1  0
  1 20  1  0
  1 21  1  0
  1 22  1  0
  6 23  1  0
  6 24  1  0
  6 25  1  0
  8 26  1  0
  8 27  1  0
 10 28  1  0
 10 29  1  0
 15 30  1  0
 16 31  1  0
 17 32  1  0
 18 33  1  0
 19 34  1  0
M  CHG  1  13  -1
M  END
$$$$
