FCG1390566
     RDKit          3D

 24 25  0  0  0  0  0  0  0  0999 V2000
    2.9719   -0.5423   -2.5754 C   0  0  0  0  0  0  0  0  0  0  0  0
    2.8769   -0.2693   -1.1391 N   0  0  0  0  0  0  0  0  0  0  0  0
    3.8857   -0.7871   -0.2111 C   0  0  0  0  0  0  0  0  0  0  0  0
    1.7781    0.5164   -0.6434 C   0  0  0  0  0  0  0  0  0  0  0  0
    0.8103    1.0240   -1.4388 N   0  0  0  0  0  0  0  0  0  0  0  0
   -0.1113    1.7287   -0.7274 C   0  0  0  0  0  0  0  0  0  0  0  0
   -1.3063    2.3454   -1.3829 C   0  0  0  0  0  0  0  0  0  0  0  0
   -2.4349    1.3662   -1.4082 C   0  0  0  0  0  0  0  0  0  0  0  0
   -2.6741    0.5009   -2.4105 N   0  0  0  0  0  0  0  0  0  0  0  0
   -3.7094   -0.2178   -1.9980 N   0  0  0  0  0  0  0  0  0  0  0  0
   -4.0844    0.1787   -0.7904 N   0  0  0  0  0  0  0  0  0  0  0  0
   -3.2974    1.1648   -0.4007 N   0  0  0  0  0  0  0  0  0  0  0  0
    0.1077    1.7723    0.6482 C   0  0  0  0  0  0  0  0  0  0  0  0
    1.5158    0.9126    0.9739 S   0  0  0  0  0  0  0  0  0  0  0  0
    3.8636   -1.1571   -2.8192 H   0  0  0  0  0  0  0  0  0  0  0  0
    2.0678   -1.0923   -2.9121 H   0  0  0  0  0  0  0  0  0  0  0  0
    3.0461    0.4147   -3.1338 H   0  0  0  0  0  0  0  0  0  0  0  0
    4.3790    0.0573    0.3150 H   0  0  0  0  0  0  0  0  0  0  0  0
    3.4018   -1.4521    0.5350 H   0  0  0  0  0  0  0  0  0  0  0  0
    4.6685   -1.3708   -0.7390 H   0  0  0  0  0  0  0  0  0  0  0  0
   -1.6165    3.2587   -0.8308 H   0  0  0  0  0  0  0  0  0  0  0  0
   -1.0502    2.6452   -2.4217 H   0  0  0  0  0  0  0  0  0  0  0  0
   -3.3505    1.6608    0.5164 H   0  0  0  0  0  0  0  0  0  0  0  0
   -0.5205    2.2642    1.3790 H   0  0  0  0  0  0  0  0  0  0  0  0
  1  2  1  0
  2  3  1  0
  2  4  1  0
  4  5  2  0
  5  6  1  0
  6  7  1  0
  7  8  1  0
  8  9  2  0
  9 10  1  0
 10 11  2  0
 11 12  1  0
  6 13  2  0
 13 14  1  0
 14  4  1  0
 12  8  1  0
  1 15  1  0
  1 16  1  0
  1 17  1  0
  3 18  1  0
  3 19  1  0
  3 20  1  0
  7 21  1  0
  7 22  1  0
 12 23  1  0
 13 24  1  0
M  END
$$$$
FCG16141527
     RDKit          3D

 35 38  0  0  0  0  0  0  0  0999 V2000
    4.0539   -0.6956    2.8496 C   0  0  0  0  0  0  0  0  0  0  0  0
    2.6956   -0.1085    2.6596 C   0  0  0  0  0  0  0  0  0  0  0  0
    1.5970   -0.7929    3.0723 N   0  0  0  0  0  0  0  0  0  0  0  0
    0.3421   -0.3078    2.8824 C   0  0  0  0  0  0  0  0  0  0  0  0
   -1.0507   -1.3226    3.4086 S   0  0  0  0  0  0  0  0  0  0  0  0
   -1.0969   -2.3383    1.8866 C   0  0  0  0  0  0  0  0  0  0  0  0
   -1.5028   -1.5100    0.7048 C   0  0  0  0  0  0  0  0  0  0  0  0
   -2.8497   -1.1434    0.5164 C   0  0  0  0  0  0  0  0  0  0  0  0
   -3.1731   -0.2696   -0.5298 C   0  0  0  0  0  0  0  0  0  0  0  0
   -4.3696    0.0833   -0.7134 O   0  0  0  0  0  0  0  0  0  0  0  0
   -2.1745    0.1968   -1.3303 N   0  0  0  0  0  0  0  0  0  0  0  0
   -2.3005    1.0704   -2.3669 C   0  0  0  0  0  0  0  0  0  0  0  0
   -1.0946    1.3878   -2.9914 C   0  0  0  0  0  0  0  0  0  0  0  0
    0.1559    0.5487   -2.2177 S   0  0  0  0  0  0  0  0  0  0  0  0
   -0.8932   -0.1804   -1.1330 C   0  0  0  0  0  0  0  0  0  0  0  0
   -0.5425   -1.0198   -0.1299 N   0  0  0  0  0  0  0  0  0  0  0  0
    0.1695    0.9405    2.2491 C   0  0  0  0  0  0  0  0  0  0  0  0
   -1.0945    1.5225    2.0328 C   0  0  0  0  0  0  0  0  0  0  0  0
   -1.2012    2.7343    1.3442 C   0  0  0  0  0  0  0  0  0  0  0  0
   -0.0545    3.3835    0.8803 C   0  0  0  0  0  0  0  0  0  0  0  0
    1.2070    2.8284    1.1091 C   0  0  0  0  0  0  0  0  0  0  0  0
    1.3252    1.6129    1.7926 C   0  0  0  0  0  0  0  0  0  0  0  0
    2.5527    1.0738    2.0069 N   0  0  0  0  0  0  0  0  0  0  0  0
    4.0765   -1.3186    3.7686 H   0  0  0  0  0  0  0  0  0  0  0  0
    4.8097    0.1120    2.9488 H   0  0  0  0  0  0  0  0  0  0  0  0
    4.3084   -1.3279    1.9738 H   0  0  0  0  0  0  0  0  0  0  0  0
   -1.8261   -3.1631    2.0318 H   0  0  0  0  0  0  0  0  0  0  0  0
   -0.1002   -2.7976    1.7120 H   0  0  0  0  0  0  0  0  0  0  0  0
   -3.6206   -1.5084    1.1846 H   0  0  0  0  0  0  0  0  0  0  0  0
   -3.2506    1.4883   -2.6753 H   0  0  0  0  0  0  0  0  0  0  0  0
   -0.9793    2.0631   -3.8282 H   0  0  0  0  0  0  0  0  0  0  0  0
   -2.0015    1.0456    2.3787 H   0  0  0  0  0  0  0  0  0  0  0  0
   -2.1761    3.1699    1.1672 H   0  0  0  0  0  0  0  0  0  0  0  0
   -0.1435    4.3205    0.3460 H   0  0  0  0  0  0  0  0  0  0  0  0
    2.0906    3.3415    0.7501 H   0  0  0  0  0  0  0  0  0  0  0  0
  1  2  1  0
  2  3  2  0
  3  4  1  0
  4  5  1  0
  5  6  1  0
  6  7  1  0
  7  8  2  0
  8  9  1  0
  9 10  2  0
  9 11  1  0
 11 12  1  0
 12 13  2  0
 13 14  1  0
 14 15  1  0
 15 16  2  0
  4 17  2  0
 17 18  1  0
 18 19  2  0
 19 20  1  0
 20 21  2  0
 21 22  1  0
 22 23  2  0
 23  2  1  0
 16  7  1  0
 22 17  1  0
 15 11  1  0
  1 24  1  0
  1 25  1  0
  1 26  1  0
  6 27  1  0
  6 28  1  0
  8 29  1  0
 12 30  1  0
 13 31  1  0
 18 32  1  0
 19 33  1  0
 20 34  1  0
 21 35  1  0
M  END
$$$$
FCG16425532
     RDKit          3D

 40 43  0  0  0  0  0  0  0  0999 V2000
   -1.1177    2.2589    1.6574 C   0  0  0  0  0  0  0  0  0  0  0  0
   -0.8801    0.7646    1.6380 C   0  0  2  0  0  0  0  0  0  0  0  0
    0.3162    0.5534    0.9201 O   0  0  0  0  0  0  0  0  0  0  0  0
    1.4536    0.0115    1.4570 C   0  0  0  0  0  0  0  0  0  0  0  0
    1.4297   -0.3189    2.6678 O   0  0  0  0  0  0  0  0  0  0  0  0
    2.6857   -0.2045    0.7121 C   0  0  0  0  0  0  0  0  0  0  0  0
    3.0254    0.0356   -0.5650 C   0  0  0  0  0  0  0  0  0  0  0  0
    4.2862   -0.2882   -0.9602 C   0  0  0  0  0  0  0  0  0  0  0  0
    5.1348   -0.8197   -0.1035 C   0  0  0  0  0  0  0  0  0  0  0  0
    4.1755   -0.9183    1.4296 S   0  0  0  0  0  0  0  0  0  0  0  0
    6.4711   -1.1124   -0.6727 C   0  0  0  0  0  0  0  0  0  0  0  0
    6.4762   -0.1313   -1.8575 C   0  0  0  0  0  0  0  0  0  0  0  0
    5.0502   -0.1954   -2.2746 C   0  0  0  0  0  0  0  0  0  0  0  0
   -2.0445    0.1091    1.0385 C   0  0  0  0  0  0  0  0  0  0  0  0
   -3.2005    0.7845    0.9298 N   0  0  0  0  0  0  0  0  0  0  0  0
   -4.3207    0.3061    0.4089 C   0  0  0  0  0  0  0  0  0  0  0  0
   -5.4972    1.0355    0.3137 C   0  0  0  0  0  0  0  0  0  0  0  0
   -6.6539    0.5508   -0.2207 C   0  0  0  0  0  0  0  0  0  0  0  0
   -6.6503   -0.7539   -0.6982 C   0  0  0  0  0  0  0  0  0  0  0  0
   -5.4888   -1.5098   -0.6174 C   0  0  0  0  0  0  0  0  0  0  0  0
   -4.3310   -0.9874   -0.0687 C   0  0  0  0  0  0  0  0  0  0  0  0
   -3.1558   -1.7078    0.0294 C   0  0  0  0  0  0  0  0  0  0  0  0
   -3.1614   -2.8924   -0.4069 O   0  0  0  0  0  0  0  0  0  0  0  0
   -2.0398   -1.1573    0.5754 N   0  0  0  0  0  0  0  0  0  0  0  0
   -1.7019    2.5634    2.5615 H   0  0  0  0  0  0  0  0  0  0  0  0
   -1.6612    2.5360    0.7337 H   0  0  0  0  0  0  0  0  0  0  0  0
   -0.1455    2.8204    1.6255 H   0  0  0  0  0  0  0  0  0  0  0  0
   -0.8053    0.4430    2.6957 H   0  0  0  0  0  0  0  0  0  0  0  0
    2.2388    0.4918   -1.2299 H   0  0  0  0  0  0  0  0  0  0  0  0
    7.2972   -0.8400    0.0070 H   0  0  0  0  0  0  0  0  0  0  0  0
    6.5362   -2.1498   -0.9958 H   0  0  0  0  0  0  0  0  0  0  0  0
    7.1919   -0.4496   -2.6197 H   0  0  0  0  0  0  0  0  0  0  0  0
    6.7173    0.8679   -1.4088 H   0  0  0  0  0  0  0  0  0  0  0  0
    4.8825   -1.2029   -2.7485 H   0  0  0  0  0  0  0  0  0  0  0  0
    4.7135    0.6228   -2.9031 H   0  0  0  0  0  0  0  0  0  0  0  0
   -5.4845    2.0506    0.6900 H   0  0  0  0  0  0  0  0  0  0  0  0
   -7.5611    1.1574   -0.2780 H   0  0  0  0  0  0  0  0  0  0  0  0
   -7.5614   -1.1592   -1.1278 H   0  0  0  0  0  0  0  0  0  0  0  0
   -5.4501   -2.5267   -0.9784 H   0  0  0  0  0  0  0  0  0  0  0  0
   -1.1690   -1.7012    0.6444 H   0  0  0  0  0  0  0  0  0  0  0  0
  1  2  1  0
  2  3  1  0
  3  4  1  0
  4  5  2  0
  4  6  1  0
  6  7  2  0
  7  8  1  0
  8  9  2  0
  9 10  1  0
  9 11  1  0
 11 12  1  0
 12 13  1  0
  2 14  1  0
 14 15  2  0
 15 16  1  0
 16 17  2  0
 17 18  1  0
 18 19  2  0
 19 20  1  0
 20 21  2  0
 21 22  1  0
 22 23  2  0
 22 24  1  0
 10  6  1  0
 24 14  1  0
 13  8  1  0
 21 16  1  0
  1 25  1  0
  1 26  1  0
  1 27  1  0
  2 28  1  1
  7 29  1  0
 11 30  1  0
 11 31  1  0
 12 32  1  0
 12 33  1  0
 13 34  1  0
 13 35  1  0
 17 36  1  0
 18 37  1  0
 19 38  1  0
 20 39  1  0
 24 40  1  0
M  END
$$$$
FCG16600623
     RDKit          3D

 47 49  0  0  0  0  0  0  0  0999 V2000
    7.9024   -0.3667   -1.7610 C   0  0  0  0  0  0  0  0  0  0  0  0
    7.4068   -0.1371   -0.3760 C   0  0  0  0  0  0  0  0  0  0  0  0
    7.3739    1.0163    0.0652 O   0  0  0  0  0  0  0  0  0  0  0  0
    6.9878   -1.2250    0.4017 N   0  0  0  0  0  0  0  0  0  0  0  0
    6.4910   -1.1387    1.7423 C   0  0  0  0  0  0  0  0  0  0  0  0
    5.2702   -0.3069    1.7929 C   0  0  0  0  0  0  0  0  0  0  0  0
    5.2376    1.0320    2.0769 C   0  0  0  0  0  0  0  0  0  0  0  0
    3.8946    1.4098    2.0156 C   0  0  0  0  0  0  0  0  0  0  0  0
    3.1838    0.2738    1.6967 C   0  0  0  0  0  0  0  0  0  0  0  0
    1.7158    0.2407    1.5341 C   0  0  0  0  0  0  0  0  0  0  0  0
    1.1633   -0.8501    1.2417 O   0  0  0  0  0  0  0  0  0  0  0  0
    0.9079    1.4666    1.7115 C   0  0  0  0  0  0  0  0  0  0  0  0
   -0.4533    1.1693    1.4875 O   0  0  0  0  0  0  0  0  0  0  0  0
   -0.8842    0.6868    0.2573 C   0  0  0  0  0  0  0  0  0  0  0  0
   -0.0382    0.5289   -0.6318 O   0  0  0  0  0  0  0  0  0  0  0  0
   -2.3003    0.3771    0.0287 C   0  0  0  0  0  0  0  0  0  0  0  0
   -2.9710   -0.1003   -1.0682 C   0  0  0  0  0  0  0  0  0  0  0  0
   -4.2969   -0.2852   -0.9680 C   0  0  0  0  0  0  0  0  0  0  0  0
   -4.9126    0.0048    0.2026 C   0  0  0  0  0  0  0  0  0  0  0  0
   -3.6284    0.5615    1.2344 S   0  0  0  0  0  0  0  0  0  0  0  0
   -6.2913   -0.0524    0.7125 C   0  0  0  0  0  0  0  0  0  0  0  0
   -7.2254   -0.2358   -0.4574 C   0  0  0  0  0  0  0  0  0  0  0  0
   -6.8583    0.8068   -1.4907 C   0  0  0  0  0  0  0  0  0  0  0  0
   -6.0696    0.2189   -2.6312 C   0  0  0  0  0  0  0  0  0  0  0  0
   -5.0667   -0.8124   -2.1677 C   0  0  0  0  0  0  0  0  0  0  0  0
    4.0210   -0.7046    1.5755 O   0  0  0  0  0  0  0  0  0  0  0  0
    8.8312    0.2145   -1.9297 H   0  0  0  0  0  0  0  0  0  0  0  0
    8.1036   -1.4449   -1.9500 H   0  0  0  0  0  0  0  0  0  0  0  0
    7.1074   -0.0717   -2.4766 H   0  0  0  0  0  0  0  0  0  0  0  0
    7.0473   -2.1784   -0.0461 H   0  0  0  0  0  0  0  0  0  0  0  0
    7.2934   -0.6403    2.3477 H   0  0  0  0  0  0  0  0  0  0  0  0
    6.2646   -2.1469    2.1607 H   0  0  0  0  0  0  0  0  0  0  0  0
    6.0613    1.7125    2.3171 H   0  0  0  0  0  0  0  0  0  0  0  0
    3.5668    2.4126    2.1958 H   0  0  0  0  0  0  0  0  0  0  0  0
    1.0022    1.8611    2.7553 H   0  0  0  0  0  0  0  0  0  0  0  0
    1.2697    2.2754    1.0433 H   0  0  0  0  0  0  0  0  0  0  0  0
   -2.3547   -0.3072   -1.9904 H   0  0  0  0  0  0  0  0  0  0  0  0
   -6.3893   -0.8555    1.4676 H   0  0  0  0  0  0  0  0  0  0  0  0
   -6.5166    0.9486    1.1611 H   0  0  0  0  0  0  0  0  0  0  0  0
   -8.2726   -0.0791   -0.0899 H   0  0  0  0  0  0  0  0  0  0  0  0
   -7.1836   -1.2612   -0.8244 H   0  0  0  0  0  0  0  0  0  0  0  0
   -6.2662    1.6364   -1.0542 H   0  0  0  0  0  0  0  0  0  0  0  0
   -7.8105    1.2392   -1.8695 H   0  0  0  0  0  0  0  0  0  0  0  0
   -5.5798    1.0189   -3.1934 H   0  0  0  0  0  0  0  0  0  0  0  0
   -6.7827   -0.2925   -3.2985 H   0  0  0  0  0  0  0  0  0  0  0  0
   -5.5500   -1.7811   -1.9226 H   0  0  0  0  0  0  0  0  0  0  0  0
   -4.4015   -1.0159   -3.0282 H   0  0  0  0  0  0  0  0  0  0  0  0
  1  2  1  0
  2  3  2  0
  2  4  1  0
  4  5  1  0
  5  6  1  0
  6  7  2  0
  7  8  1  0
  8  9  2  0
  9 10  1  0
 10 11  2  0
 10 12  1  0
 12 13  1  0
 13 14  1  0
 14 15  2  0
 14 16  1  0
 16 17  2  0
 17 18  1  0
 18 19  2  0
 19 20  1  0
 19 21  1  0
 21 22  1  0
 22 23  1  0
 23 24  1  0
 24 25  1  0
  9 26  1  0
 26  6  1  0
 20 16  1  0
 25 18  1  0
  1 27  1  0
  1 28  1  0
  1 29  1  0
  4 30  1  0
  5 31  1  0
  5 32  1  0
  7 33  1  0
  8 34  1  0
 12 35  1  0
 12 36  1  0
 17 37  1  0
 21 38  1  0
 21 39  1  0
 22 40  1  0
 22 41  1  0
 23 42  1  0
 23 43  1  0
 24 44  1  0
 24 45  1  0
 25 46  1  0
 25 47  1  0
M  END
$$$$
FCG16952409
     RDKit          3D

 47 50  0  0  0  0  0  0  0  0999 V2000
   -0.8977    1.8129    0.3442 C   0  0  0  0  0  0  0  0  0  0  0  0
   -0.3601    0.4193    0.5424 C   0  0  0  0  0  0  0  0  0  0  0  0
    1.0790    0.3505    0.4761 N   0  0  0  0  0  0  0  0  0  0  0  0
    1.8889    0.1499   -0.6224 C   0  0  0  0  0  0  0  0  0  0  0  0
    3.1595    0.0483   -0.3893 O   0  0  0  0  0  0  0  0  0  0  0  0
    1.5389    0.0321   -2.0470 C   0  0  0  0  0  0  0  0  0  0  0  0
    0.3343    0.0849   -2.5091 O   0  0  0  0  0  0  0  0  0  0  0  0
   -0.8765    0.1378   -2.9734 C   0  0  0  0  0  0  0  0  0  0  0  0
   -1.2273    1.1755   -3.8754 C   0  0  0  0  0  0  0  0  0  0  0  0
   -2.4912    1.2659   -4.3900 C   0  0  0  0  0  0  0  0  0  0  0  0
   -3.4628    0.3532   -4.0493 C   0  0  0  0  0  0  0  0  0  0  0  0
   -3.1846   -0.6765   -3.1790 C   0  0  0  0  0  0  0  0  0  0  0  0
   -4.2137   -1.5946   -2.8542 N   0  0  0  0  0  0  0  0  0  0  0  0
   -4.3144   -2.8663   -3.2625 C   0  0  0  0  0  0  0  0  0  0  0  0
   -5.4230   -3.4157   -2.7477 N   0  0  0  0  0  0  0  0  0  0  0  0
   -6.0145   -2.4945   -2.0209 N   0  0  0  0  0  0  0  0  0  0  0  0
   -5.2737   -1.4071   -2.0965 N   0  0  0  0  0  0  0  0  0  0  0  0
   -1.9154   -0.7433   -2.6802 C   0  0  0  0  0  0  0  0  0  0  0  0
    1.7047    0.4678    1.7855 C   0  0  0  0  0  0  0  0  0  0  0  0
    1.7666   -0.6714    2.5790 C   0  0  0  0  0  0  0  0  0  0  0  0
    2.3541   -0.5936    3.8202 C   0  0  0  0  0  0  0  0  0  0  0  0
    2.8783    0.5894    4.2844 C   0  0  0  0  0  0  0  0  0  0  0  0
    2.8253    1.7275    3.5094 C   0  0  0  0  0  0  0  0  0  0  0  0
    3.3625    2.8946    3.9896 C   0  0  0  0  0  0  0  0  0  0  0  0
    3.3227    4.0265    3.2227 C   0  0  0  0  0  0  0  0  0  0  0  0
    2.7347    3.9381    1.9824 C   0  0  0  0  0  0  0  0  0  0  0  0
    2.1911    2.7718    1.4884 C   0  0  0  0  0  0  0  0  0  0  0  0
    2.2263    1.6352    2.2507 C   0  0  0  0  0  0  0  0  0  0  0  0
   -0.3920    2.3614   -0.4694 H   0  0  0  0  0  0  0  0  0  0  0  0
   -1.9730    1.7222    0.0783 H   0  0  0  0  0  0  0  0  0  0  0  0
   -0.7735    2.4296    1.2710 H   0  0  0  0  0  0  0  0  0  0  0  0
   -0.7227    0.1291    1.5857 H   0  0  0  0  0  0  0  0  0  0  0  0
   -0.8667   -0.2610   -0.1319 H   0  0  0  0  0  0  0  0  0  0  0  0
    2.0545   -0.9789   -2.3492 H   0  0  0  0  0  0  0  0  0  0  0  0
    2.2603    0.7369   -2.6125 H   0  0  0  0  0  0  0  0  0  0  0  0
   -0.4600    1.9143   -4.1572 H   0  0  0  0  0  0  0  0  0  0  0  0
   -2.7721    2.0560   -5.0821 H   0  0  0  0  0  0  0  0  0  0  0  0
   -4.4472    0.4449   -4.4663 H   0  0  0  0  0  0  0  0  0  0  0  0
   -3.5710   -3.3338   -3.9183 H   0  0  0  0  0  0  0  0  0  0  0  0
   -1.6695   -1.5425   -1.9947 H   0  0  0  0  0  0  0  0  0  0  0  0
    1.3539   -1.6117    2.2164 H   0  0  0  0  0  0  0  0  0  0  0  0
    2.4058   -1.4657    4.4397 H   0  0  0  0  0  0  0  0  0  0  0  0
    3.3374    0.6574    5.2502 H   0  0  0  0  0  0  0  0  0  0  0  0
    3.8145    2.9318    4.9602 H   0  0  0  0  0  0  0  0  0  0  0  0
    3.7372    4.9878    3.5576 H   0  0  0  0  0  0  0  0  0  0  0  0
    2.6790    4.8193    1.3296 H   0  0  0  0  0  0  0  0  0  0  0  0
    1.7577    2.7594    0.5159 H   0  0  0  0  0  0  0  0  0  0  0  0
  1  2  1  0
  2  3  1  0
  3  4  1  0
  4  5  2  0
  4  6  1  0
  6  7  1  0
  7  8  1  0
  8  9  2  0
  9 10  1  0
 10 11  2  0
 11 12  1  0
 12 13  1  0
 13 14  1  0
 14 15  2  0
 15 16  1  0
 16 17  2  0
 12 18  2  0
  3 19  1  0
 19 20  2  0
 20 21  1  0
 21 22  2  0
 22 23  1  0
 23 24  2  0
 24 25  1  0
 25 26  2  0
 26 27  1  0
 27 28  2  0
 18  8  1  0
 28 19  1  0
 17 13  1  0
 28 23  1  0
  1 29  1  0
  1 30  1  0
  1 31  1  0
  2 32  1  0
  2 33  1  0
  6 34  1  0
  6 35  1  0
  9 36  1  0
 10 37  1  0
 11 38  1  0
 14 39  1  0
 18 40  1  0
 20 41  1  0
 21 42  1  0
 22 43  1  0
 24 44  1  0
 25 45  1  0
 26 46  1  0
 27 47  1  0
M  END
$$$$
FCG17274676
     RDKit          3D

 40 43  0  0  0  0  0  0  0  0999 V2000
    0.6386   -0.0911   -0.2834 C   0  0  0  0  0  0  0  0  0  0  0  0
    0.6592   -1.4242    0.3161 N   0  0  0  0  0  0  0  0  0  0  0  0
    0.4963   -2.6124   -0.3019 C   0  0  0  0  0  0  0  0  0  0  0  0
    0.2081   -2.7973   -1.7624 C   0  0  0  0  0  0  0  0  0  0  0  0
    1.4766   -2.7310   -2.5670 C   0  0  0  0  0  0  0  0  0  0  0  0
    1.7220   -1.6466   -3.4335 C   0  0  0  0  0  0  0  0  0  0  0  0
    2.9072   -1.5928   -4.1756 C   0  0  0  0  0  0  0  0  0  0  0  0
    3.8609   -2.6099   -4.0452 C   0  0  0  0  0  0  0  0  0  0  0  0
    3.6234   -3.6893   -3.1863 C   0  0  0  0  0  0  0  0  0  0  0  0
    2.4332   -3.7508   -2.4530 C   0  0  0  0  0  0  0  0  0  0  0  0
    0.7272   -3.6383    0.5414 N   0  0  0  0  0  0  0  0  0  0  0  0
    1.0349   -3.1130    1.7185 N   0  0  0  0  0  0  0  0  0  0  0  0
    0.9984   -1.7766    1.5727 C   0  0  0  0  0  0  0  0  0  0  0  0
    1.3790   -0.6321    2.9065 S   0  0  0  0  0  0  0  0  0  0  0  0
   -0.3037   -0.6824    3.6133 C   0  0  0  0  0  0  0  0  0  0  0  0
   -1.2443    0.1128    2.7628 C   0  0  0  0  0  0  0  0  0  0  0  0
   -2.0125   -0.5280    1.8323 N   0  0  0  0  0  0  0  0  0  0  0  0
   -2.8364    0.1955    1.0371 C   0  0  0  0  0  0  0  0  0  0  0  0
   -3.6610   -0.3330    0.0472 C   0  0  0  0  0  0  0  0  0  0  0  0
   -4.3895    0.6593   -0.6117 C   0  0  0  0  0  0  0  0  0  0  0  0
   -4.0005    2.1781    0.0427 S   0  0  0  0  0  0  0  0  0  0  0  0
   -2.9115    1.5654    1.1629 C   0  0  0  0  0  0  0  0  0  0  0  0
   -2.1316    2.2248    2.1022 C   0  0  0  0  0  0  0  0  0  0  0  0
   -2.1815    3.4813    2.2230 O   0  0  0  0  0  0  0  0  0  0  0  0
   -1.3030    1.4811    2.8905 N   0  0  0  0  0  0  0  0  0  0  0  0
    1.4852    0.0085   -1.0002 H   0  0  0  0  0  0  0  0  0  0  0  0
   -0.3139    0.0588   -0.8358 H   0  0  0  0  0  0  0  0  0  0  0  0
    0.7296    0.7046    0.4915 H   0  0  0  0  0  0  0  0  0  0  0  0
   -0.2728   -3.7860   -1.9168 H   0  0  0  0  0  0  0  0  0  0  0  0
   -0.5170   -2.0319   -2.0972 H   0  0  0  0  0  0  0  0  0  0  0  0
    0.9923   -0.8484   -3.5419 H   0  0  0  0  0  0  0  0  0  0  0  0
    3.0876   -0.7585   -4.8492 H   0  0  0  0  0  0  0  0  0  0  0  0
    4.7810   -2.5691   -4.6160 H   0  0  0  0  0  0  0  0  0  0  0  0
    4.3620   -4.4756   -3.0871 H   0  0  0  0  0  0  0  0  0  0  0  0
    2.2652   -4.5918   -1.7895 H   0  0  0  0  0  0  0  0  0  0  0  0
   -0.2798   -0.2496    4.6386 H   0  0  0  0  0  0  0  0  0  0  0  0
   -0.6583   -1.7344    3.7008 H   0  0  0  0  0  0  0  0  0  0  0  0
   -3.7206   -1.3871   -0.1940 H   0  0  0  0  0  0  0  0  0  0  0  0
   -5.0890    0.4898   -1.4161 H   0  0  0  0  0  0  0  0  0  0  0  0
   -0.6865    1.9717    3.5836 H   0  0  0  0  0  0  0  0  0  0  0  0
  1  2  1  0
  2  3  1  0
  3  4  1  0
  4  5  1  0
  5  6  2  0
  6  7  1  0
  7  8  2  0
  8  9  1  0
  9 10  2  0
  3 11  2  0
 11 12  1  0
 12 13  2  0
 13 14  1  0
 14 15  1  0
 15 16  1  0
 16 17  2  0
 17 18  1  0
 18 19  1  0
 19 20  2  0
 20 21  1  0
 21 22  1  0
 22 23  1  0
 23 24  2  0
 23 25  1  0
 13  2  1  0
 25 16  1  0
 10  5  1  0
 22 18  2  0
  1 26  1  0
  1 27  1  0
  1 28  1  0
  4 29  1  0
  4 30  1  0
  6 31  1  0
  7 32  1  0
  8 33  1  0
  9 34  1  0
 10 35  1  0
 15 36  1  0
 15 37  1  0
 19 38  1  0
 20 39  1  0
 25 40  1  0
M  END
$$$$
FCG17585042
     RDKit          3D

 38 40  0  0  0  0  0  0  0  0999 V2000
    8.6082    1.3618   -0.6066 N   0  0  0  0  0  0  0  0  0  0  0  0
    7.4988    0.7408   -0.4825 C   0  0  0  0  0  0  0  0  0  0  0  0
    6.2963    0.0591   -0.3699 C   0  0  0  0  0  0  0  0  0  0  0  0
    5.1354    0.6481    0.1693 C   0  0  0  0  0  0  0  0  0  0  0  0
    3.9667   -0.1142    0.3479 C   0  0  0  0  0  0  0  0  0  0  0  0
    3.9444   -1.4017    0.0079 C   0  0  0  0  0  0  0  0  0  0  0  0
    2.8145   -2.3846    0.2355 C   0  0  0  0  0  0  0  0  0  0  0  0
    1.5350   -2.3256   -0.9727 S   0  0  0  0  0  0  0  0  0  0  0  0
    0.0465   -1.5144   -0.5509 C   0  0  0  0  0  0  0  0  0  0  0  0
   -1.0443   -2.2221   -0.0385 N   0  0  0  0  0  0  0  0  0  0  0  0
   -1.9628   -1.3208    0.1800 N   0  0  0  0  0  0  0  0  0  0  0  0
   -1.5538   -0.1256   -0.1511 C   0  0  0  0  0  0  0  0  0  0  0  0
   -2.3190    1.1153   -0.0173 C   0  0  0  0  0  0  0  0  0  0  0  0
   -3.5127    1.1593   -0.8308 N   0  0  0  0  0  4  0  0  0  0  0  0
   -4.3767   -0.0015   -0.6258 C   0  0  0  0  0  0  0  0  0  0  0  0
   -5.0370    0.3488    0.7041 C   0  0  0  0  0  0  0  0  0  0  0  0
   -5.5551    1.7524    0.2760 C   0  0  0  0  0  0  0  0  0  0  0  0
   -4.3058    2.3042   -0.3862 C   0  0  0  0  0  0  0  0  0  0  0  0
   -0.2943   -0.2295   -0.6141 O   0  0  0  0  0  0  0  0  0  0  0  0
    5.0952   -2.0047   -0.5343 C   0  0  0  0  0  0  0  0  0  0  0  0
    6.2482   -1.2832   -0.7191 C   0  0  0  0  0  0  0  0  0  0  0  0
    5.1875    1.6955    0.4315 H   0  0  0  0  0  0  0  0  0  0  0  0
    3.1213    0.3752    0.7634 H   0  0  0  0  0  0  0  0  0  0  0  0
    3.2266   -3.4159    0.3249 H   0  0  0  0  0  0  0  0  0  0  0  0
    2.4571   -2.1047    1.2888 H   0  0  0  0  0  0  0  0  0  0  0  0
   -1.7182    2.0219   -0.3567 H   0  0  0  0  0  0  0  0  0  0  0  0
   -2.5454    1.3190    1.0372 H   0  0  0  0  0  0  0  0  0  0  0  0
   -3.2690    1.2125   -1.8176 H   0  0  0  0  0  0  0  0  0  0  0  0
   -5.2278    0.1304   -1.3597 H   0  0  0  0  0  0  0  0  0  0  0  0
   -3.9458   -0.9533   -0.7356 H   0  0  0  0  0  0  0  0  0  0  0  0
   -5.9038   -0.2445    0.9542 H   0  0  0  0  0  0  0  0  0  0  0  0
   -4.3047    0.4971    1.4878 H   0  0  0  0  0  0  0  0  0  0  0  0
   -6.2583    1.5566   -0.5694 H   0  0  0  0  0  0  0  0  0  0  0  0
   -5.9455    2.2862    1.0961 H   0  0  0  0  0  0  0  0  0  0  0  0
   -4.5562    2.9717   -1.2131 H   0  0  0  0  0  0  0  0  0  0  0  0
   -3.7586    2.8531    0.4066 H   0  0  0  0  0  0  0  0  0  0  0  0
    5.0810   -3.0258   -0.8266 H   0  0  0  0  0  0  0  0  0  0  0  0
    7.1321   -1.7371   -1.1602 H   0  0  0  0  0  0  0  0  0  0  0  0
  1  2  3  0
  2  3  1  0
  3  4  2  0
  4  5  1  0
  5  6  2  0
  6  7  1  0
  7  8  1  0
  8  9  1  0
  9 10  2  0
 10 11  1  0
 11 12  2  0
 12 13  1  0
 13 14  1  0
 14 15  1  0
 15 16  1  0
 16 17  1  0
 17 18  1  0
 12 19  1  0
  6 20  1  0
 20 21  2  0
 21  3  1  0
 19  9  1  0
 18 14  1  0
  4 22  1  0
  5 23  1  0
  7 24  1  0
  7 25  1  0
 13 26  1  0
 13 27  1  0
 14 28  1  0
 15 29  1  0
 15 30  1  0
 16 31  1  0
 16 32  1  0
 17 33  1  0
 17 34  1  0
 18 35  1  0
 18 36  1  0
 20 37  1  0
 21 38  1  0
M  CHG  1  14   1
M  END
$$$$
FCG17822054
     RDKit          3D

 35 36  0  0  0  0  0  0  0  0999 V2000
    0.9094    1.0737   -1.4690 C   0  0  0  0  0  0  0  0  0  0  0  0
    2.1832    1.1649   -0.6928 C   0  0  0  0  0  0  0  0  0  0  0  0
    3.0531    2.1878   -0.8070 N   0  0  0  0  0  0  0  0  0  0  0  0
    4.0280    1.9559    0.0246 O   0  0  0  0  0  0  0  0  0  0  0  0
    3.8382    0.8339    0.6799 C   0  0  0  0  0  0  0  0  0  0  0  0
    4.7740    0.2982    1.7130 C   0  0  0  0  0  0  0  0  0  0  0  0
    2.6400    0.2798    0.2684 C   0  0  0  0  0  0  0  0  0  0  0  0
    2.0073   -1.0014    0.7321 C   0  0  0  0  0  0  0  0  0  0  0  0
    1.6184   -0.9414    2.5193 S   0  0  0  0  0  0  0  0  0  0  0  0
    0.1596    0.1557    2.3958 C   0  0  0  0  0  0  0  0  0  0  0  0
   -1.0017   -0.5507    1.7648 C   0  0  0  0  0  0  0  0  0  0  0  0
   -1.2989   -1.7189    2.1356 O   0  0  0  0  0  0  0  0  0  0  0  0
   -1.8192    0.1340    0.8055 N   0  0  0  0  0  0  0  0  0  0  0  0
   -2.6326   -0.5316   -0.1752 C   0  0  0  0  0  0  0  0  0  0  0  0
   -3.7665    0.1198   -0.6861 C   0  0  0  0  0  0  0  0  0  0  0  0
   -4.5571   -0.4956   -1.6615 C   0  0  0  0  0  0  0  0  0  0  0  0
   -4.2139   -1.7604   -2.1455 C   0  0  0  0  0  0  0  0  0  0  0  0
   -3.0754   -2.4084   -1.6600 C   0  0  0  0  0  0  0  0  0  0  0  0
   -2.2826   -1.7971   -0.6836 C   0  0  0  0  0  0  0  0  0  0  0  0
    0.9386    1.7734   -2.3303 H   0  0  0  0  0  0  0  0  0  0  0  0
    0.7671    0.0436   -1.8565 H   0  0  0  0  0  0  0  0  0  0  0  0
    0.0573    1.3469   -0.8159 H   0  0  0  0  0  0  0  0  0  0  0  0
    4.3785    0.5235    2.7250 H   0  0  0  0  0  0  0  0  0  0  0  0
    5.7710    0.7728    1.6001 H   0  0  0  0  0  0  0  0  0  0  0  0
    4.8851   -0.7999    1.5953 H   0  0  0  0  0  0  0  0  0  0  0  0
    2.7233   -1.8314    0.5601 H   0  0  0  0  0  0  0  0  0  0  0  0
    1.0930   -1.2307    0.1486 H   0  0  0  0  0  0  0  0  0  0  0  0
   -0.1308    0.4711    3.4192 H   0  0  0  0  0  0  0  0  0  0  0  0
    0.4232    1.0676    1.8203 H   0  0  0  0  0  0  0  0  0  0  0  0
   -1.8419    1.1784    0.8412 H   0  0  0  0  0  0  0  0  0  0  0  0
   -4.0409    1.1018   -0.3218 H   0  0  0  0  0  0  0  0  0  0  0  0
   -5.4346    0.0097   -2.0441 H   0  0  0  0  0  0  0  0  0  0  0  0
   -4.8253   -2.2345   -2.9024 H   0  0  0  0  0  0  0  0  0  0  0  0
   -2.8019   -3.3816   -2.0468 H   0  0  0  0  0  0  0  0  0  0  0  0
   -1.3872   -2.3027   -0.3477 H   0  0  0  0  0  0  0  0  0  0  0  0
  1  2  1  0
  2  3  2  0
  3  4  1  0
  4  5  1  0
  5  6  1  0
  5  7  2  0
  7  8  1  0
  8  9  1  0
  9 10  1  0
 10 11  1  0
 11 12  2  0
 11 13  1  0
 13 14  1  0
 14 15  2  0
 15 16  1  0
 16 17  2  0
 17 18  1  0
 18 19  2  0
  7  2  1  0
 19 14  1  0
  1 20  1  0
  1 21  1  0
  1 22  1  0
  6 23  1  0
  6 24  1  0
  6 25  1  0
  8 26  1  0
  8 27  1  0
 10 28  1  0
 10 29  1  0
 13 30  1  0
 15 31  1  0
 16 32  1  0
 17 33  1  0
 18 34  1  0
 19 35  1  0
M  END
$$$$
FCG18066182
     RDKit          3D

 46 48  0  0  0  0  0  0  0  0999 V2000
   -5.9397   -0.3780   -0.7521 C   0  0  0  0  0  0  0  0  0  0  0  0
   -4.7139   -0.5079    0.1218 C   0  0  2  0  0  0  0  0  0  0  0  0
   -4.5671    0.6846    1.0484 C   0  0  0  0  0  0  0  0  0  0  0  0
   -3.5515    0.3219    2.0917 C   0  0  0  0  0  0  0  0  0  0  0  0
   -2.6809   -0.8357    1.6865 C   0  0  0  0  0  0  0  0  0  0  0  0
   -2.2790   -0.7613    0.2277 C   0  0  2  0  0  0  0  0  0  0  0  0
   -1.4560    0.4360    0.0843 N   0  0  0  0  0  0  0  0  0  0  0  0
   -0.1031    0.4141   -0.2820 C   0  0  0  0  0  0  0  0  0  0  0  0
    0.4450   -0.6958   -0.5028 O   0  0  0  0  0  0  0  0  0  0  0  0
    0.7353    1.6379   -0.4278 C   0  0  0  0  0  0  0  0  0  0  0  0
    2.0854    1.3212   -0.8128 N   0  0  0  0  0  0  0  0  0  0  0  0
    2.5432    1.2162   -2.0490 N   0  0  0  0  0  0  0  0  0  0  0  0
    3.8366    0.9119   -2.0296 N   0  0  0  0  0  0  0  0  0  0  0  0
    4.2246    0.8178   -0.7534 C   0  0  0  0  0  0  0  0  0  0  0  0
    5.5704    0.5002   -0.2993 C   0  0  0  0  0  0  0  0  0  0  0  0
    5.9080    0.4178    1.0324 C   0  0  0  0  0  0  0  0  0  0  0  0
    7.2053    0.1117    1.4216 C   0  0  0  0  0  0  0  0  0  0  0  0
    8.1880   -0.1175    0.4856 C   0  0  0  0  0  0  0  0  0  0  0  0
    7.8620   -0.0379   -0.8403 C   0  0  0  0  0  0  0  0  0  0  0  0
    6.5778    0.2651   -1.2084 C   0  0  0  0  0  0  0  0  0  0  0  0
    6.1283    0.3749   -3.0778 Br  0  0  0  0  0  0  0  0  0  0  0  0
    3.1242    1.0750   -0.0265 N   0  0  0  0  0  0  0  0  0  0  0  0
   -3.4714   -0.7383   -0.6876 C   0  0  1  0  0  0  0  0  0  0  0  0
   -3.6425   -2.0856   -1.3975 C   0  0  0  0  0  0  0  0  0  0  0  0
   -6.6890    0.2152   -0.1736 H   0  0  0  0  0  0  0  0  0  0  0  0
   -5.7332    0.1551   -1.6982 H   0  0  0  0  0  0  0  0  0  0  0  0
   -6.3520   -1.4022   -0.9374 H   0  0  0  0  0  0  0  0  0  0  0  0
   -4.8964   -1.3916    0.7887 H   0  0  0  0  0  0  0  0  0  0  0  0
   -4.3238    1.5724    0.4632 H   0  0  0  0  0  0  0  0  0  0  0  0
   -5.5842    0.8508    1.4928 H   0  0  0  0  0  0  0  0  0  0  0  0
   -2.9466    1.2078    2.3897 H   0  0  0  0  0  0  0  0  0  0  0  0
   -4.1141    0.0240    3.0119 H   0  0  0  0  0  0  0  0  0  0  0  0
   -1.7198   -0.7539    2.2708 H   0  0  0  0  0  0  0  0  0  0  0  0
   -3.1024   -1.8191    1.9645 H   0  0  0  0  0  0  0  0  0  0  0  0
   -1.6810   -1.6701    0.0067 H   0  0  0  0  0  0  0  0  0  0  0  0
   -1.9089    1.3576    0.2670 H   0  0  0  0  0  0  0  0  0  0  0  0
    0.2631    2.3732   -1.1245 H   0  0  0  0  0  0  0  0  0  0  0  0
    0.7002    2.1427    0.5823 H   0  0  0  0  0  0  0  0  0  0  0  0
    5.1687    0.5902    1.7995 H   0  0  0  0  0  0  0  0  0  0  0  0
    7.4938    0.0416    2.4645 H   0  0  0  0  0  0  0  0  0  0  0  0
    9.2085   -0.3582    0.7568 H   0  0  0  0  0  0  0  0  0  0  0  0
    8.5823   -0.2057   -1.6342 H   0  0  0  0  0  0  0  0  0  0  0  0
   -3.3943    0.0422   -1.4789 H   0  0  0  0  0  0  0  0  0  0  0  0
   -4.5709   -2.5919   -1.1035 H   0  0  0  0  0  0  0  0  0  0  0  0
   -2.8005   -2.7463   -1.1085 H   0  0  0  0  0  0  0  0  0  0  0  0
   -3.6287   -1.9823   -2.4889 H   0  0  0  0  0  0  0  0  0  0  0  0
  1  2  1  0
  2  3  1  0
  3  4  1  0
  4  5  1  0
  5  6  1  0
  6  7  1  0
  7  8  1  0
  8  9  2  0
  8 10  1  0
 10 11  1  0
 11 12  1  0
 12 13  2  0
 13 14  1  0
 14 15  1  0
 15 16  2  0
 16 17  1  0
 17 18  2  0
 18 19  1  0
 19 20  2  0
 20 21  1  0
 14 22  2  0
  6 23  1  0
 23 24  1  0
 23  2  1  0
 22 11  1  0
 20 15  1  0
  1 25  1  0
  1 26  1  0
  1 27  1  0
  2 28  1  1
  3 29  1  0
  3 30  1  0
  4 31  1  0
  4 32  1  0
  5 33  1  0
  5 34  1  0
  6 35  1  6
  7 36  1  0
 10 37  1  0
 10 38  1  0
 16 39  1  0
 17 40  1  0
 18 41  1  0
 19 42  1  0
 23 43  1  6
 24 44  1  0
 24 45  1  0
 24 46  1  0
M  END
$$$$
