FCG1390566
     RDKit          3D

 23 24  0  0  0  0  0  0  0  0999 V2000
   -0.2393   -3.3045    0.2551 C   0  0  0  0  0  0  0  0  0  0  0  0
    0.9155   -2.4194    0.0838 N   0  0  0  0  0  0  0  0  0  0  0  0
    2.2257   -2.9623   -0.2846 C   0  0  0  0  0  0  0  0  0  0  0  0
    0.7524   -1.0035    0.2815 C   0  0  0  0  0  0  0  0  0  0  0  0
   -0.4250   -0.4321    0.6194 N   0  0  0  0  0  0  0  0  0  0  0  0
   -0.3138    0.9182    0.7472 C   0  0  0  0  0  0  0  0  0  0  0  0
   -1.4960    1.7770    1.0690 C   0  0  0  0  0  0  0  0  0  0  0  0
   -2.1818    2.1929   -0.1911 C   0  0  0  0  0  0  0  0  0  0  0  0
   -1.8702    3.2952   -0.8954 N   0  0  0  0  0  0  0  0  0  0  0  0
   -2.6631    3.2493   -1.9533 N   0  0  0  0  0  0  0  0  0  0  0  0
   -3.4169    2.1623   -1.9018 N   0  0  0  0  0  0  0  0  0  0  0  0
   -3.1342    1.4723   -0.8091 N   0  0  0  0  0  2  0  0  0  0  0  0
    0.9550    1.4357    0.4934 C   0  0  0  0  0  0  0  0  0  0  0  0
    1.9705    0.1498    0.1153 S   0  0  0  0  0  0  0  0  0  0  0  0
    0.0260   -4.3670    0.0728 H   0  0  0  0  0  0  0  0  0  0  0  0
   -0.6278   -3.2160    1.2917 H   0  0  0  0  0  0  0  0  0  0  0  0
   -1.0391   -3.0183   -0.4602 H   0  0  0  0  0  0  0  0  0  0  0  0
    2.5557   -2.5219   -1.2491 H   0  0  0  0  0  0  0  0  0  0  0  0
    2.9679   -2.7169    0.5040 H   0  0  0  0  0  0  0  0  0  0  0  0
    2.1954   -4.0659   -0.4002 H   0  0  0  0  0  0  0  0  0  0  0  0
   -1.1716    2.6779    1.6334 H   0  0  0  0  0  0  0  0  0  0  0  0
   -2.2062    1.2110    1.7091 H   0  0  0  0  0  0  0  0  0  0  0  0
    1.2364    2.4799    0.5256 H   0  0  0  0  0  0  0  0  0  0  0  0
  1  2  1  0
  2  3  1  0
  2  4  1  0
  4  5  2  0
  5  6  1  0
  6  7  1  0
  7  8  1  0
  8  9  2  0
  9 10  1  0
 10 11  2  0
 11 12  1  0
  6 13  2  0
 13 14  1  0
 14  4  1  0
 12  8  1  0
  1 15  1  0
  1 16  1  0
  1 17  1  0
  3 18  1  0
  3 19  1  0
  3 20  1  0
  7 21  1  0
  7 22  1  0
 13 23  1  0
M  CHG  1  12  -1
M  END
$$$$
FCG16141527
     RDKit          3D

 35 38  0  0  0  0  0  0  0  0999 V2000
    3.3931    0.7740    4.0716 C   0  0  0  0  0  0  0  0  0  0  0  0
    2.5005    0.3082    2.9707 C   0  0  0  0  0  0  0  0  0  0  0  0
    1.2514   -0.1439    3.2554 N   0  0  0  0  0  0  0  0  0  0  0  0
    0.3967   -0.5407    2.2766 C   0  0  0  0  0  0  0  0  0  0  0  0
   -1.2602   -1.0629    2.7545 S   0  0  0  0  0  0  0  0  0  0  0  0
   -1.9522    0.6303    2.8211 C   0  0  0  0  0  0  0  0  0  0  0  0
   -1.9982    1.2418    1.4532 C   0  0  0  0  0  0  0  0  0  0  0  0
   -2.9912    0.8586    0.5308 C   0  0  0  0  0  0  0  0  0  0  0  0
   -2.9306    1.3598   -0.7760 C   0  0  0  0  0  0  0  0  0  0  0  0
   -3.8006    1.0236   -1.6245 O   0  0  0  0  0  0  0  0  0  0  0  0
   -1.9133    2.2013   -1.1116 N   0  0  0  0  0  0  0  0  0  0  0  0
   -1.6820    2.7551   -2.3337 C   0  0  0  0  0  0  0  0  0  0  0  0
   -0.5443    3.5602   -2.3858 C   0  0  0  0  0  0  0  0  0  0  0  0
    0.1843    3.5716   -0.8577 S   0  0  0  0  0  0  0  0  0  0  0  0
   -0.9812    2.5605   -0.2033 C   0  0  0  0  0  0  0  0  0  0  0  0
   -1.0052    2.0929    1.0674 N   0  0  0  0  0  0  0  0  0  0  0  0
    0.8136   -0.4922    0.9302 C   0  0  0  0  0  0  0  0  0  0  0  0
   -0.0029   -0.9040   -0.1409 C   0  0  0  0  0  0  0  0  0  0  0  0
    0.4472   -0.7732   -1.4578 C   0  0  0  0  0  0  0  0  0  0  0  0
    1.7152   -0.2485   -1.7194 C   0  0  0  0  0  0  0  0  0  0  0  0
    2.5442    0.1418   -0.6647 C   0  0  0  0  0  0  0  0  0  0  0  0
    2.1016    0.0204    0.6574 C   0  0  0  0  0  0  0  0  0  0  0  0
    2.9080    0.4070    1.6790 N   0  0  0  0  0  0  0  0  0  0  0  0
    4.4571    0.6257    3.7906 H   0  0  0  0  0  0  0  0  0  0  0  0
    3.1872    0.2004    4.9999 H   0  0  0  0  0  0  0  0  0  0  0  0
    3.2127    1.8525    4.2616 H   0  0  0  0  0  0  0  0  0  0  0  0
   -2.9790    0.5783    3.2409 H   0  0  0  0  0  0  0  0  0  0  0  0
   -1.3412    1.2584    3.5045 H   0  0  0  0  0  0  0  0  0  0  0  0
   -3.7742    0.1666    0.8172 H   0  0  0  0  0  0  0  0  0  0  0  0
   -2.3193    2.5809   -3.1916 H   0  0  0  0  0  0  0  0  0  0  0  0
   -0.1859    4.0850   -3.2608 H   0  0  0  0  0  0  0  0  0  0  0  0
   -0.9895   -1.3138    0.0274 H   0  0  0  0  0  0  0  0  0  0  0  0
   -0.1902   -1.0770   -2.2781 H   0  0  0  0  0  0  0  0  0  0  0  0
    2.0574   -0.1477   -2.7412 H   0  0  0  0  0  0  0  0  0  0  0  0
    3.5275    0.5428   -0.8770 H   0  0  0  0  0  0  0  0  0  0  0  0
  1  2  1  0
  2  3  2  0
  3  4  1  0
  4  5  1  0
  5  6  1  0
  6  7  1  0
  7  8  2  0
  8  9  1  0
  9 10  2  0
  9 11  1  0
 11 12  1  0
 12 13  2  0
 13 14  1  0
 14 15  1  0
 15 16  2  0
  4 17  2  0
 17 18  1  0
 18 19  2  0
 19 20  1  0
 20 21  2  0
 21 22  1  0
 22 23  2  0
 23  2  1  0
 16  7  1  0
 22 17  1  0
 15 11  1  0
  1 24  1  0
  1 25  1  0
  1 26  1  0
  6 27  1  0
  6 28  1  0
  8 29  1  0
 12 30  1  0
 13 31  1  0
 18 32  1  0
 19 33  1  0
 20 34  1  0
 21 35  1  0
M  END
$$$$
FCG16425532
     RDKit          3D

 30 31  0  0  0  0  0  0  0  0999 V2000
    3.4731   -0.6275    0.5356 C   0  0  0  0  0  0  0  0  0  0  0  0
    2.5873   -0.6901    1.6961 N   0  0  0  0  0  0  0  0  0  0  0  0
    2.9209   -0.3149    2.9471 C   0  0  0  0  0  0  0  0  0  0  0  0
    1.8481   -0.4938    3.7958 C   0  0  0  0  0  0  0  0  0  0  0  0
    0.8167   -0.9994    3.0301 C   0  0  0  0  0  0  0  0  0  0  0  0
    1.3016   -1.1125    1.7387 C   0  0  0  0  0  0  0  0  0  0  0  0
    0.5162   -1.6122    0.5922 C   0  0  0  0  0  0  0  0  0  0  0  0
   -0.6989   -1.9093    0.7552 O   0  0  0  0  0  0  0  0  0  0  0  0
    1.1143   -1.7615   -0.6634 O   0  0  0  0  0  0  0  0  0  0  0  0
    0.3989   -2.1480   -1.8344 C   0  0  0  0  0  0  0  0  0  0  0  0
   -0.4743   -1.0109   -2.3131 C   0  0  0  0  0  0  0  0  0  0  0  0
    0.1512    0.1693   -2.7516 C   0  0  0  0  0  0  0  0  0  0  0  0
   -0.6082    1.2564   -3.1897 C   0  0  0  0  0  0  0  0  0  0  0  0
   -2.0012    1.1800   -3.1942 C   0  0  0  0  0  0  0  0  0  0  0  0
   -2.6397    0.0166   -2.7598 C   0  0  0  0  0  0  0  0  0  0  0  0
   -1.8889   -1.0822   -2.3170 C   0  0  0  0  0  0  0  0  0  0  0  0
   -2.5941   -2.2611   -1.8747 C   0  0  0  0  0  0  0  0  0  0  0  0
   -3.1604   -3.2059   -1.5197 N   0  0  0  0  0  0  0  0  0  0  0  0
    3.6351   -1.6483    0.1307 H   0  0  0  0  0  0  0  0  0  0  0  0
    3.0249    0.0217   -0.2458 H   0  0  0  0  0  0  0  0  0  0  0  0
    4.4599   -0.2025    0.8186 H   0  0  0  0  0  0  0  0  0  0  0  0
    3.8904    0.0723    3.2339 H   0  0  0  0  0  0  0  0  0  0  0  0
    1.8199   -0.2779    4.8554 H   0  0  0  0  0  0  0  0  0  0  0  0
   -0.1751   -1.2555    3.3792 H   0  0  0  0  0  0  0  0  0  0  0  0
   -0.1697   -3.0805   -1.6372 H   0  0  0  0  0  0  0  0  0  0  0  0
    1.1344   -2.3880   -2.6310 H   0  0  0  0  0  0  0  0  0  0  0  0
    1.2318    0.2474   -2.7508 H   0  0  0  0  0  0  0  0  0  0  0  0
   -0.1156    2.1599   -3.5249 H   0  0  0  0  0  0  0  0  0  0  0  0
   -2.5875    2.0241   -3.5338 H   0  0  0  0  0  0  0  0  0  0  0  0
   -3.7225   -0.0260   -2.7682 H   0  0  0  0  0  0  0  0  0  0  0  0
  1  2  1  0
  2  3  1  0
  3  4  2  0
  4  5  1  0
  5  6  2  0
  6  7  1  0
  7  8  2  0
  7  9  1  0
  9 10  1  0
 10 11  1  0
 11 12  2  0
 12 13  1  0
 13 14  2  0
 14 15  1  0
 15 16  2  0
 16 17  1  0
 17 18  3  0
  6  2  1  0
 16 11  1  0
  1 19  1  0
  1 20  1  0
  1 21  1  0
  3 22  1  0
  4 23  1  0
  5 24  1  0
 10 25  1  0
 10 26  1  0
 12 27  1  0
 13 28  1  0
 14 29  1  0
 15 30  1  0
M  END
$$$$
FCG16600623
     RDKit          3D

 40 43  0  0  0  0  0  0  0  0999 V2000
   -1.1905   -0.2583   -2.9989 C   0  0  0  0  0  0  0  0  0  0  0  0
   -1.1837    0.4860   -1.6734 C   0  0  2  0  0  0  0  0  0  0  0  0
    0.1336    0.2964   -1.1345 O   0  0  0  0  0  0  0  0  0  0  0  0
    0.9945    1.3438   -0.9258 C   0  0  0  0  0  0  0  0  0  0  0  0
    0.6073    2.5000   -1.2191 O   0  0  0  0  0  0  0  0  0  0  0  0
    2.3545    1.1390   -0.3683 C   0  0  0  0  0  0  0  0  0  0  0  0
    2.9643    0.0104    0.0089 C   0  0  0  0  0  0  0  0  0  0  0  0
    4.2309    0.0743    0.4969 C   0  0  0  0  0  0  0  0  0  0  0  0
    4.8183    1.2877    0.5775 C   0  0  0  0  0  0  0  0  0  0  0  0
    3.5390    2.3805   -0.0567 S   0  0  0  0  0  0  0  0  0  0  0  0
    6.2016    1.2132    1.1145 C   0  0  0  0  0  0  0  0  0  0  0  0
    6.5510   -0.2122    0.6544 C   0  0  0  0  0  0  0  0  0  0  0  0
    5.2688   -0.9082    1.0367 C   0  0  0  0  0  0  0  0  0  0  0  0
   -2.1794   -0.0462   -0.7429 C   0  0  0  0  0  0  0  0  0  0  0  0
   -3.2809    0.6715   -0.4698 N   0  0  0  0  0  0  0  0  0  0  0  0
   -4.2434    0.2632    0.3683 C   0  0  0  0  0  0  0  0  0  0  0  0
   -5.3736    1.0417    0.6242 C   0  0  0  0  0  0  0  0  0  0  0  0
   -6.3390    0.5844    1.4924 C   0  0  0  0  0  0  0  0  0  0  0  0
   -6.1670   -0.6386    2.0928 C   0  0  0  0  0  0  0  0  0  0  0  0
   -5.0580   -1.4190    1.8513 C   0  0  0  0  0  0  0  0  0  0  0  0
   -4.0820   -0.9605    0.9758 C   0  0  0  0  0  0  0  0  0  0  0  0
   -2.9516   -1.6996    0.6969 C   0  0  0  0  0  0  0  0  0  0  0  0
   -2.8092   -2.8155    1.2539 O   0  0  0  0  0  0  0  0  0  0  0  0
   -2.0167   -1.2596   -0.1423 N   0  0  0  0  0  0  0  0  0  0  0  0
   -1.3112   -1.3389   -2.7631 H   0  0  0  0  0  0  0  0  0  0  0  0
   -1.9741    0.1204   -3.6821 H   0  0  0  0  0  0  0  0  0  0  0  0
   -0.1810   -0.1486   -3.4459 H   0  0  0  0  0  0  0  0  0  0  0  0
   -1.3910    1.5328   -1.8829 H   0  0  0  0  0  0  0  0  0  0  0  0
    2.4104   -0.9654   -0.0876 H   0  0  0  0  0  0  0  0  0  0  0  0
    6.8769    1.9584    0.6501 H   0  0  0  0  0  0  0  0  0  0  0  0
    6.1532    1.2921    2.2067 H   0  0  0  0  0  0  0  0  0  0  0  0
    6.6302   -0.1822   -0.4448 H   0  0  0  0  0  0  0  0  0  0  0  0
    7.4350   -0.6000    1.1617 H   0  0  0  0  0  0  0  0  0  0  0  0
    5.1167   -0.8855    2.1377 H   0  0  0  0  0  0  0  0  0  0  0  0
    5.1662   -1.8987    0.5993 H   0  0  0  0  0  0  0  0  0  0  0  0
   -5.4901    1.9990    0.1429 H   0  0  0  0  0  0  0  0  0  0  0  0
   -7.2249    1.2012    1.6893 H   0  0  0  0  0  0  0  0  0  0  0  0
   -6.9332   -1.0107    2.7872 H   0  0  0  0  0  0  0  0  0  0  0  0
   -4.9243   -2.3771    2.3223 H   0  0  0  0  0  0  0  0  0  0  0  0
   -1.1478   -1.7714   -0.3892 H   0  0  0  0  0  0  0  0  0  0  0  0
  1  2  1  0
  2  3  1  0
  3  4  1  0
  4  5  2  0
  4  6  1  0
  6  7  2  0
  7  8  1  0
  8  9  2  0
  9 10  1  0
  9 11  1  0
 11 12  1  0
 12 13  1  0
  2 14  1  0
 14 15  2  0
 15 16  1  0
 16 17  2  0
 17 18  1  0
 18 19  2  0
 19 20  1  0
 20 21  2  0
 21 22  1  0
 22 23  2  0
 22 24  1  0
 10  6  1  0
 24 14  1  0
 13  8  1  0
 21 16  1  0
  1 25  1  0
  1 26  1  0
  1 27  1  0
  2 28  1  6
  7 29  1  0
 11 30  1  0
 11 31  1  0
 12 32  1  0
 12 33  1  0
 13 34  1  0
 13 35  1  0
 17 36  1  0
 18 37  1  0
 19 38  1  0
 20 39  1  0
 24 40  1  0
M  END
$$$$
FCG16952409
     RDKit          3D

 47 49  0  0  0  0  0  0  0  0999 V2000
    7.2008    2.0618   -1.2559 C   0  0  0  0  0  0  0  0  0  0  0  0
    6.0787    1.5751   -0.3995 C   0  0  0  0  0  0  0  0  0  0  0  0
    5.0303    2.2511   -0.3195 O   0  0  0  0  0  0  0  0  0  0  0  0
    6.2570    0.3629    0.2855 N   0  0  0  0  0  0  0  0  0  0  0  0
    5.2516   -0.2075    1.1351 C   0  0  0  0  0  0  0  0  0  0  0  0
    4.0342   -0.4864    0.2836 C   0  0  0  0  0  0  0  0  0  0  0  0
    2.9280    0.3084    0.1466 C   0  0  0  0  0  0  0  0  0  0  0  0
    2.0599   -0.3463   -0.7417 C   0  0  0  0  0  0  0  0  0  0  0  0
    2.6835   -1.5146   -1.1019 C   0  0  0  0  0  0  0  0  0  0  0  0
    2.1813   -2.5325   -1.9993 C   0  0  0  0  0  0  0  0  0  0  0  0
    2.9811   -3.4984   -2.2694 O   0  0  0  0  0  0  0  0  0  0  0  0
    0.8809   -2.5699   -2.6195 C   0  0  0  0  0  0  0  0  0  0  0  0
   -0.1417   -1.7785   -2.1014 O   0  0  0  0  0  0  0  0  0  0  0  0
   -0.6924   -1.9305   -0.8487 C   0  0  0  0  0  0  0  0  0  0  0  0
   -0.2699   -2.8284   -0.1011 O   0  0  0  0  0  0  0  0  0  0  0  0
   -1.7754   -1.0703   -0.3375 C   0  0  0  0  0  0  0  0  0  0  0  0
   -2.4156   -1.0694    0.8202 C   0  0  0  0  0  0  0  0  0  0  0  0
   -3.3895   -0.1584    1.0481 C   0  0  0  0  0  0  0  0  0  0  0  0
   -3.6684    0.7243    0.0657 C   0  0  0  0  0  0  0  0  0  0  0  0
   -2.5315    0.2604   -1.2108 S   0  0  0  0  0  0  0  0  0  0  0  0
   -4.5837    1.8567   -0.1837 C   0  0  0  0  0  0  0  0  0  0  0  0
   -5.9692    1.5482    0.3246 C   0  0  0  0  0  0  0  0  0  0  0  0
   -5.9265    1.4025    1.8258 C   0  0  0  0  0  0  0  0  0  0  0  0
   -5.6110   -0.0313    2.1482 C   0  0  0  0  0  0  0  0  0  0  0  0
   -4.1340   -0.1560    2.3932 C   0  0  0  0  0  0  0  0  0  0  0  0
    3.8497   -1.5410   -0.4627 O   0  0  0  0  0  0  0  0  0  0  0  0
    6.7429    2.5849   -2.1172 H   0  0  0  0  0  0  0  0  0  0  0  0
    7.7878    1.2237   -1.6621 H   0  0  0  0  0  0  0  0  0  0  0  0
    7.8485    2.7430   -0.6774 H   0  0  0  0  0  0  0  0  0  0  0  0
    7.1707   -0.1524    0.1712 H   0  0  0  0  0  0  0  0  0  0  0  0
    5.6095   -1.1691    1.5540 H   0  0  0  0  0  0  0  0  0  0  0  0
    4.9577    0.4795    1.9573 H   0  0  0  0  0  0  0  0  0  0  0  0
    2.7500    1.2532    0.6369 H   0  0  0  0  0  0  0  0  0  0  0  0
    1.1182    0.0829   -1.0357 H   0  0  0  0  0  0  0  0  0  0  0  0
    0.5758   -3.6512   -2.6915 H   0  0  0  0  0  0  0  0  0  0  0  0
    0.9352   -2.2758   -3.7249 H   0  0  0  0  0  0  0  0  0  0  0  0
   -2.1361   -1.8298    1.5978 H   0  0  0  0  0  0  0  0  0  0  0  0
   -4.6450    2.1216   -1.2593 H   0  0  0  0  0  0  0  0  0  0  0  0
   -4.2111    2.7303    0.4001 H   0  0  0  0  0  0  0  0  0  0  0  0
   -6.2848    0.5688   -0.0921 H   0  0  0  0  0  0  0  0  0  0  0  0
   -6.7171    2.2825   -0.0113 H   0  0  0  0  0  0  0  0  0  0  0  0
   -5.2021    2.0936    2.2820 H   0  0  0  0  0  0  0  0  0  0  0  0
   -6.9285    1.7053    2.2146 H   0  0  0  0  0  0  0  0  0  0  0  0
   -6.1275   -0.3570    3.0754 H   0  0  0  0  0  0  0  0  0  0  0  0
   -5.8736   -0.7214    1.3121 H   0  0  0  0  0  0  0  0  0  0  0  0
   -3.7602    0.7196    2.9391 H   0  0  0  0  0  0  0  0  0  0  0  0
   -3.9189   -1.0641    2.9661 H   0  0  0  0  0  0  0  0  0  0  0  0
  1  2  1  0
  2  3  2  0
  2  4  1  0
  4  5  1  0
  5  6  1  0
  6  7  2  0
  7  8  1  0
  8  9  2  0
  9 10  1  0
 10 11  2  0
 10 12  1  0
 12 13  1  0
 13 14  1  0
 14 15  2  0
 14 16  1  0
 16 17  2  0
 17 18  1  0
 18 19  2  0
 19 20  1  0
 19 21  1  0
 21 22  1  0
 22 23  1  0
 23 24  1  0
 24 25  1  0
  9 26  1  0
 26  6  1  0
 20 16  1  0
 25 18  1  0
  1 27  1  0
  1 28  1  0
  1 29  1  0
  4 30  1  0
  5 31  1  0
  5 32  1  0
  7 33  1  0
  8 34  1  0
 12 35  1  0
 12 36  1  0
 17 37  1  0
 21 38  1  0
 21 39  1  0
 22 40  1  0
 22 41  1  0
 23 42  1  0
 23 43  1  0
 24 44  1  0
 24 45  1  0
 25 46  1  0
 25 47  1  0
M  END
$$$$
FCG17274676
     RDKit          3D

 47 50  0  0  0  0  0  0  0  0999 V2000
    1.2888   -1.3264   -1.7969 C   0  0  0  0  0  0  0  0  0  0  0  0
    0.4900   -2.3373   -0.9801 C   0  0  0  0  0  0  0  0  0  0  0  0
   -0.0892   -1.7042    0.2153 N   0  0  0  0  0  0  0  0  0  0  0  0
   -1.5063   -1.4496    0.3616 C   0  0  0  0  0  0  0  0  0  0  0  0
   -1.9671   -1.1415    1.4950 O   0  0  0  0  0  0  0  0  0  0  0  0
   -2.4671   -1.5325   -0.7950 C   0  0  0  0  0  0  0  0  0  0  0  0
   -2.0670   -0.6635   -1.8541 O   0  0  0  0  0  0  0  0  0  0  0  0
   -2.0808    0.7402   -1.7992 C   0  0  0  0  0  0  0  0  0  0  0  0
   -2.6484    1.4520   -0.7264 C   0  0  0  0  0  0  0  0  0  0  0  0
   -2.5991    2.8464   -0.7056 C   0  0  0  0  0  0  0  0  0  0  0  0
   -1.9941    3.5461   -1.7515 C   0  0  0  0  0  0  0  0  0  0  0  0
   -1.4334    2.8542   -2.8411 C   0  0  0  0  0  0  0  0  0  0  0  0
   -0.8026    3.5580   -3.9302 N   0  0  0  0  0  0  0  0  0  0  0  0
   -0.6365    4.8836   -4.1011 C   0  0  0  0  0  0  0  0  0  0  0  0
    0.0089    5.1161   -5.2589 N   0  0  0  0  0  0  0  0  0  0  0  0
    0.2302    3.9191   -5.7837 N   0  0  0  0  0  0  0  0  0  0  0  0
   -0.2564    2.9806   -4.9869 N   0  0  0  0  0  0  0  0  0  0  0  0
   -1.4909    1.4485   -2.8530 C   0  0  0  0  0  0  0  0  0  0  0  0
    0.7871   -1.4006    1.3171 C   0  0  0  0  0  0  0  0  0  0  0  0
    1.2795   -2.4508    2.1052 C   0  0  0  0  0  0  0  0  0  0  0  0
    2.1047   -2.1915    3.2000 C   0  0  0  0  0  0  0  0  0  0  0  0
    2.4493   -0.8796    3.5264 C   0  0  0  0  0  0  0  0  0  0  0  0
    1.9743    0.1886    2.7521 C   0  0  0  0  0  0  0  0  0  0  0  0
    2.3245    1.5087    3.0775 C   0  0  0  0  0  0  0  0  0  0  0  0
    1.8596    2.5716    2.3000 C   0  0  0  0  0  0  0  0  0  0  0  0
    1.0488    2.3272    1.1908 C   0  0  0  0  0  0  0  0  0  0  0  0
    0.6929    1.0194    0.8547 C   0  0  0  0  0  0  0  0  0  0  0  0
    1.1393   -0.0661    1.6327 C   0  0  0  0  0  0  0  0  0  0  0  0
    0.6398   -0.4858   -2.1140 H   0  0  0  0  0  0  0  0  0  0  0  0
    2.1335   -0.9275   -1.1966 H   0  0  0  0  0  0  0  0  0  0  0  0
    1.6994   -1.8202   -2.7024 H   0  0  0  0  0  0  0  0  0  0  0  0
   -0.2896   -2.7899   -1.6238 H   0  0  0  0  0  0  0  0  0  0  0  0
    1.1654   -3.1657   -0.6752 H   0  0  0  0  0  0  0  0  0  0  0  0
   -3.5012   -1.2837   -0.4722 H   0  0  0  0  0  0  0  0  0  0  0  0
   -2.5000   -2.5752   -1.1709 H   0  0  0  0  0  0  0  0  0  0  0  0
   -3.1218    0.9411    0.0993 H   0  0  0  0  0  0  0  0  0  0  0  0
   -3.0297    3.3879    0.1268 H   0  0  0  0  0  0  0  0  0  0  0  0
   -1.9711    4.6249   -1.7006 H   0  0  0  0  0  0  0  0  0  0  0  0
   -0.9634    5.6593   -3.4233 H   0  0  0  0  0  0  0  0  0  0  0  0
   -1.0602    0.8935   -3.6767 H   0  0  0  0  0  0  0  0  0  0  0  0
    1.0103   -3.4739    1.8743 H   0  0  0  0  0  0  0  0  0  0  0  0
    2.4746   -3.0115    3.8019 H   0  0  0  0  0  0  0  0  0  0  0  0
    3.0887   -0.7000    4.3826 H   0  0  0  0  0  0  0  0  0  0  0  0
    2.9585    1.7178    3.9310 H   0  0  0  0  0  0  0  0  0  0  0  0
    2.1330    3.5874    2.5550 H   0  0  0  0  0  0  0  0  0  0  0  0
    0.6968    3.1536    0.5863 H   0  0  0  0  0  0  0  0  0  0  0  0
    0.0788    0.8646   -0.0188 H   0  0  0  0  0  0  0  0  0  0  0  0
  1  2  1  0
  2  3  1  0
  3  4  1  0
  4  5  2  0
  4  6  1  0
  6  7  1  0
  7  8  1  0
  8  9  2  0
  9 10  1  0
 10 11  2  0
 11 12  1  0
 12 13  1  0
 13 14  1  0
 14 15  2  0
 15 16  1  0
 16 17  2  0
 12 18  2  0
  3 19  1  0
 19 20  2  0
 20 21  1  0
 21 22  2  0
 22 23  1  0
 23 24  2  0
 24 25  1  0
 25 26  2  0
 26 27  1  0
 27 28  2  0
 18  8  1  0
 28 19  1  0
 17 13  1  0
 28 23  1  0
  1 29  1  0
  1 30  1  0
  1 31  1  0
  2 32  1  0
  2 33  1  0
  6 34  1  0
  6 35  1  0
  9 36  1  0
 10 37  1  0
 11 38  1  0
 14 39  1  0
 18 40  1  0
 20 41  1  0
 21 42  1  0
 22 43  1  0
 24 44  1  0
 25 45  1  0
 26 46  1  0
 27 47  1  0
M  END
$$$$
FCG17585042
     RDKit          3D

 39 42  0  0  0  0  0  0  0  0999 V2000
   -0.6838   -0.7226   -0.8284 C   0  0  0  0  0  0  0  0  0  0  0  0
   -0.0769    0.5157   -0.3435 N   0  0  0  0  0  0  0  0  0  0  0  0
    0.3499    0.7996    0.9040 C   0  0  0  0  0  0  0  0  0  0  0  0
    0.3503   -0.1582    2.0592 C   0  0  0  0  0  0  0  0  0  0  0  0
   -1.0473   -0.3779    2.5733 C   0  0  0  0  0  0  0  0  0  0  0  0
   -1.6776   -1.6245    2.4182 C   0  0  0  0  0  0  0  0  0  0  0  0
   -2.9787   -1.8199    2.8916 C   0  0  0  0  0  0  0  0  0  0  0  0
   -3.6588   -0.7755    3.5237 C   0  0  0  0  0  0  0  0  0  0  0  0
   -3.0389    0.4670    3.6840 C   0  0  0  0  0  0  0  0  0  0  0  0
   -1.7377    0.6667    3.2123 C   0  0  0  0  0  0  0  0  0  0  0  0
    0.7513    2.0819    1.0053 N   0  0  0  0  0  0  0  0  0  0  0  0
    0.5869    2.6362   -0.1873 N   0  0  0  0  0  0  0  0  0  0  0  0
    0.0844    1.6845   -0.9953 C   0  0  0  0  0  0  0  0  0  0  0  0
   -0.2959    1.9628   -2.7291 S   0  0  0  0  0  0  0  0  0  0  0  0
    1.4079    1.6507   -3.3112 C   0  0  0  0  0  0  0  0  0  0  0  0
    1.7810    0.2162   -3.1134 C   0  0  0  0  0  0  0  0  0  0  0  0
    1.2395   -0.7449   -3.9203 N   0  0  0  0  0  0  0  0  0  0  0  0
    1.5314   -2.0500   -3.6924 C   0  0  0  0  0  0  0  0  0  0  0  0
    1.0411   -3.1272   -4.4318 C   0  0  0  0  0  0  0  0  0  0  0  0
    1.5050   -4.3527   -3.9522 C   0  0  0  0  0  0  0  0  0  0  0  0
    2.5145   -4.0845   -2.6177 S   0  0  0  0  0  0  0  0  0  0  0  0
    2.3606   -2.4134   -2.6543 C   0  0  0  0  0  0  0  0  0  0  0  0
    2.9096   -1.4412   -1.8294 C   0  0  0  0  0  0  0  0  0  0  0  0
    3.6652   -1.7488   -0.8706 O   0  0  0  0  0  0  0  0  0  0  0  0
    2.6036   -0.1374   -2.0768 N   0  0  0  0  0  2  0  0  0  0  0  0
   -0.7880   -0.7094   -1.9312 H   0  0  0  0  0  0  0  0  0  0  0  0
   -1.6925   -0.8424   -0.3825 H   0  0  0  0  0  0  0  0  0  0  0  0
   -0.0494   -1.5891   -0.5501 H   0  0  0  0  0  0  0  0  0  0  0  0
    0.8170   -1.1150    1.7405 H   0  0  0  0  0  0  0  0  0  0  0  0
    0.9788    0.2513    2.8796 H   0  0  0  0  0  0  0  0  0  0  0  0
   -1.1650   -2.4431    1.9284 H   0  0  0  0  0  0  0  0  0  0  0  0
   -3.4594   -2.7817    2.7690 H   0  0  0  0  0  0  0  0  0  0  0  0
   -4.6659   -0.9288    3.8890 H   0  0  0  0  0  0  0  0  0  0  0  0
   -3.5667    1.2753    4.1736 H   0  0  0  0  0  0  0  0  0  0  0  0
   -1.2683    1.6338    3.3419 H   0  0  0  0  0  0  0  0  0  0  0  0
    1.4625    1.8952   -4.3925 H   0  0  0  0  0  0  0  0  0  0  0  0
    2.1183    2.3161   -2.7749 H   0  0  0  0  0  0  0  0  0  0  0  0
    0.3749   -3.0265   -5.2783 H   0  0  0  0  0  0  0  0  0  0  0  0
    1.2560   -5.3199   -4.3669 H   0  0  0  0  0  0  0  0  0  0  0  0
  1  2  1  0
  2  3  1  0
  3  4  1  0
  4  5  1  0
  5  6  2  0
  6  7  1  0
  7  8  2  0
  8  9  1  0
  9 10  2  0
  3 11  2  0
 11 12  1  0
 12 13  2  0
 13 14  1  0
 14 15  1  0
 15 16  1  0
 16 17  2  0
 17 18  1  0
 18 19  1  0
 19 20  2  0
 20 21  1  0
 21 22  1  0
 22 23  1  0
 23 24  2  0
 23 25  1  0
 13  2  1  0
 25 16  1  0
 10  5  1  0
 22 18  2  0
  1 26  1  0
  1 27  1  0
  1 28  1  0
  4 29  1  0
  4 30  1  0
  6 31  1  0
  7 32  1  0
  8 33  1  0
  9 34  1  0
 10 35  1  0
 15 36  1  0
 15 37  1  0
 19 38  1  0
 20 39  1  0
M  CHG  1  25  -1
M  END
$$$$
FCG17822054
     RDKit          3D

 37 39  0  0  0  0  0  0  0  0999 V2000
    8.8966    0.6105    0.7661 N   0  0  0  0  0  0  0  0  0  0  0  0
    7.7607    0.4819    0.5943 C   0  0  0  0  0  0  0  0  0  0  0  0
    6.3466    0.3397    0.3986 C   0  0  0  0  0  0  0  0  0  0  0  0
    5.8299   -0.9230    0.1654 C   0  0  0  0  0  0  0  0  0  0  0  0
    4.4938   -1.0765   -0.0220 C   0  0  0  0  0  0  0  0  0  0  0  0
    3.6081   -0.0006    0.0110 C   0  0  0  0  0  0  0  0  0  0  0  0
    2.1868   -0.2880   -0.2049 C   0  0  0  0  0  0  0  0  0  0  0  0
    1.6887   -0.2140   -1.9225 S   0  0  0  0  0  0  0  0  0  0  0  0
   -0.0524   -0.5812   -2.0452 C   0  0  0  0  0  0  0  0  0  0  0  0
   -0.7870   -0.6229   -3.1604 N   0  0  0  0  0  0  0  0  0  0  0  0
   -2.0243   -0.9284   -2.8297 N   0  0  0  0  0  0  0  0  0  0  0  0
   -2.0705   -1.0798   -1.5041 C   0  0  0  0  0  0  0  0  0  0  0  0
   -3.2936   -1.4280   -0.7436 C   0  0  0  0  0  0  0  0  0  0  0  0
   -3.9451   -0.1911   -0.3777 N   0  0  0  0  0  0  0  0  0  0  0  0
   -3.1336    0.6575    0.4326 C   0  0  0  0  0  0  0  0  0  0  0  0
   -4.0952    1.4865    1.2730 C   0  0  0  0  0  0  0  0  0  0  0  0
   -5.4430    0.8401    1.1244 C   0  0  0  0  0  0  0  0  0  0  0  0
   -5.1918   -0.4015    0.3197 C   0  0  0  0  0  0  0  0  0  0  0  0
   -0.8641   -0.8639   -1.0562 O   0  0  0  0  0  0  0  0  0  0  0  0
    4.1381    1.2449    0.2437 C   0  0  0  0  0  0  0  0  0  0  0  0
    5.4961    1.4092    0.4353 C   0  0  0  0  0  0  0  0  0  0  0  0
    6.4986   -1.7718    0.1355 H   0  0  0  0  0  0  0  0  0  0  0  0
    4.1135   -2.0824   -0.2040 H   0  0  0  0  0  0  0  0  0  0  0  0
    1.5951    0.4848    0.3527 H   0  0  0  0  0  0  0  0  0  0  0  0
    1.9185   -1.2882    0.2229 H   0  0  0  0  0  0  0  0  0  0  0  0
   -2.9402   -1.9867    0.1716 H   0  0  0  0  0  0  0  0  0  0  0  0
   -3.9278   -2.1152   -1.2973 H   0  0  0  0  0  0  0  0  0  0  0  0
   -2.5691    1.3525   -0.2566 H   0  0  0  0  0  0  0  0  0  0  0  0
   -2.4464    0.1148    1.1131 H   0  0  0  0  0  0  0  0  0  0  0  0
   -3.8107    1.4929    2.3398 H   0  0  0  0  0  0  0  0  0  0  0  0
   -4.1456    2.5406    0.9043 H   0  0  0  0  0  0  0  0  0  0  0  0
   -6.1449    1.5058    0.5778 H   0  0  0  0  0  0  0  0  0  0  0  0
   -5.8810    0.6062    2.1290 H   0  0  0  0  0  0  0  0  0  0  0  0
   -5.9873   -0.5375   -0.4367 H   0  0  0  0  0  0  0  0  0  0  0  0
   -5.1464   -1.2529    1.0254 H   0  0  0  0  0  0  0  0  0  0  0  0
    3.4326    2.0741    0.2663 H   0  0  0  0  0  0  0  0  0  0  0  0
    5.8964    2.3920    0.6166 H   0  0  0  0  0  0  0  0  0  0  0  0
  1  2  3  0
  2  3  1  0
  3  4  2  0
  4  5  1  0
  5  6  2  0
  6  7  1  0
  7  8  1  0
  8  9  1  0
  9 10  2  0
 10 11  1  0
 11 12  2  0
 12 13  1  0
 13 14  1  0
 14 15  1  0
 15 16  1  0
 16 17  1  0
 17 18  1  0
 12 19  1  0
  6 20  1  0
 20 21  2  0
 21  3  1  0
 19  9  1  0
 18 14  1  0
  4 22  1  0
  5 23  1  0
  7 24  1  0
  7 25  1  0
 13 26  1  0
 13 27  1  0
 15 28  1  0
 15 29  1  0
 16 30  1  0
 16 31  1  0
 17 32  1  0
 17 33  1  0
 18 34  1  0
 18 35  1  0
 20 36  1  0
 21 37  1  0
M  END
$$$$
FCG18066182
     RDKit          3D

 34 35  0  0  0  0  0  0  0  0999 V2000
   -1.0096   -2.4798    2.6203 C   0  0  0  0  0  0  0  0  0  0  0  0
   -0.5409   -1.7316    3.8258 C   0  0  0  0  0  0  0  0  0  0  0  0
   -1.1729   -1.7619    5.0157 N   0  0  0  0  0  0  0  0  0  0  0  0
   -0.5020   -0.9932    5.8249 O   0  0  0  0  0  0  0  0  0  0  0  0
    0.5371   -0.4609    5.2239 C   0  0  0  0  0  0  0  0  0  0  0  0
    1.4963    0.4767    5.8805 C   0  0  0  0  0  0  0  0  0  0  0  0
    0.5571   -0.8937    3.9109 C   0  0  0  0  0  0  0  0  0  0  0  0
    1.5535   -0.5512    2.8403 C   0  0  0  0  0  0  0  0  0  0  0  0
    1.5233    1.2384    2.4623 S   0  0  0  0  0  0  0  0  0  0  0  0
   -0.0070    1.2273    1.4638 C   0  0  0  0  0  0  0  0  0  0  0  0
    0.2505    0.6369    0.1147 C   0  0  0  0  0  0  0  0  0  0  0  0
   -0.4116   -0.3659   -0.2647 O   0  0  0  0  0  0  0  0  0  0  0  0
    1.2058    1.2555   -0.7559 N   0  0  0  0  0  2  0  0  0  0  0  0
    1.7898    0.6680   -1.9273 C   0  0  0  0  0  0  0  0  0  0  0  0
    2.3068    1.5136   -2.9181 C   0  0  0  0  0  0  0  0  0  0  0  0
    2.9038    0.9789   -4.0640 C   0  0  0  0  0  0  0  0  0  0  0  0
    3.0026   -0.4060   -4.2203 C   0  0  0  0  0  0  0  0  0  0  0  0
    2.5124   -1.2574   -3.2266 C   0  0  0  0  0  0  0  0  0  0  0  0
    1.9137   -0.7261   -2.0795 C   0  0  0  0  0  0  0  0  0  0  0  0
   -1.8030   -3.2024    2.9049 H   0  0  0  0  0  0  0  0  0  0  0  0
   -0.1650   -3.0408    2.1688 H   0  0  0  0  0  0  0  0  0  0  0  0
   -1.4231   -1.7692    1.8766 H   0  0  0  0  0  0  0  0  0  0  0  0
    1.4073    0.3949    6.9839 H   0  0  0  0  0  0  0  0  0  0  0  0
    1.2658    1.5182    5.5751 H   0  0  0  0  0  0  0  0  0  0  0  0
    2.5369    0.2267    5.5860 H   0  0  0  0  0  0  0  0  0  0  0  0
    1.3714   -1.1425    1.9199 H   0  0  0  0  0  0  0  0  0  0  0  0
    2.5686   -0.8128    3.2043 H   0  0  0  0  0  0  0  0  0  0  0  0
   -0.3475    2.2754    1.3334 H   0  0  0  0  0  0  0  0  0  0  0  0
   -0.8109    0.6749    1.9938 H   0  0  0  0  0  0  0  0  0  0  0  0
    2.2386    2.5883   -2.8041 H   0  0  0  0  0  0  0  0  0  0  0  0
    3.2923    1.6384   -4.8293 H   0  0  0  0  0  0  0  0  0  0  0  0
    3.4672   -0.8191   -5.1063 H   0  0  0  0  0  0  0  0  0  0  0  0
    2.6054   -2.3297   -3.3405 H   0  0  0  0  0  0  0  0  0  0  0  0
    1.5787   -1.4047   -1.3075 H   0  0  0  0  0  0  0  0  0  0  0  0
  1  2  1  0
  2  3  2  0
  3  4  1  0
  4  5  1  0
  5  6  1  0
  5  7  2  0
  7  8  1  0
  8  9  1  0
  9 10  1  0
 10 11  1  0
 11 12  2  0
 11 13  1  0
 13 14  1  0
 14 15  2  0
 15 16  1  0
 16 17  2  0
 17 18  1  0
 18 19  2  0
  7  2  1  0
 19 14  1  0
  1 20  1  0
  1 21  1  0
  1 22  1  0
  6 23  1  0
  6 24  1  0
  6 25  1  0
  8 26  1  0
  8 27  1  0
 10 28  1  0
 10 29  1  0
 15 30  1  0
 16 31  1  0
 17 32  1  0
 18 33  1  0
 19 34  1  0
M  CHG  1  13  -1
M  END
$$$$
FCG18472628
     RDKit          3D

 46 48  0  0  0  0  0  0  0  0999 V2000
   -4.0065    0.6769    1.5008 C   0  0  0  0  0  0  0  0  0  0  0  0
   -4.5301   -0.3537    0.5058 C   0  0  2  0  0  0  0  0  0  0  0  0
   -4.5138   -1.7108    1.0881 C   0  0  0  0  0  0  0  0  0  0  0  0
   -3.3541   -2.5659    0.7834 C   0  0  0  0  0  0  0  0  0  0  0  0
   -2.6920   -2.3185   -0.5322 C   0  0  0  0  0  0  0  0  0  0  0  0
   -2.4170   -0.8086   -0.5825 C   0  0  1  0  0  0  0  0  0  0  0  0
   -1.4787   -0.4592   -1.5796 N   0  0  0  0  0  0  0  0  0  0  0  0
   -0.2298    0.1240   -1.1742 C   0  0  0  0  0  0  0  0  0  0  0  0
   -0.0147    0.3042    0.0644 O   0  0  0  0  0  0  0  0  0  0  0  0
    0.8064    0.5197   -2.1305 C   0  0  0  0  0  0  0  0  0  0  0  0
    1.9401    1.0723   -1.4228 N   0  0  0  0  0  0  0  0  0  0  0  0
    2.1209    2.3502   -1.1050 N   0  0  0  0  0  0  0  0  0  0  0  0
    3.2744    2.4926   -0.4573 N   0  0  0  0  0  0  0  0  0  0  0  0
    3.8490    1.2870   -0.3545 C   0  0  0  0  0  0  0  0  0  0  0  0
    5.1138    0.9174    0.2651 C   0  0  0  0  0  0  0  0  0  0  0  0
    5.5451   -0.3922    0.2723 C   0  0  0  0  0  0  0  0  0  0  0  0
    6.7315   -0.7460    0.8524 C   0  0  0  0  0  0  0  0  0  0  0  0
    7.5285    0.2038    1.4469 C   0  0  0  0  0  0  0  0  0  0  0  0
    7.1359    1.5451    1.4661 C   0  0  0  0  0  0  0  0  0  0  0  0
    5.9369    1.8423    0.8695 C   0  0  0  0  0  0  0  0  0  0  0  0
    5.3411    3.6582    0.8607 Br  0  0  0  0  0  0  0  0  0  0  0  0
    3.0115    0.4246   -0.9556 N   0  0  0  0  0  0  0  0  0  0  0  0
   -3.7791   -0.1770   -0.7662 C   0  0  2  0  0  0  0  0  0  0  0  0
   -3.6774    1.2890   -1.1043 C   0  0  0  0  0  0  0  0  0  0  0  0
   -3.1319    1.2345    1.0898 H   0  0  0  0  0  0  0  0  0  0  0  0
   -3.6462    0.1434    2.3997 H   0  0  0  0  0  0  0  0  0  0  0  0
   -4.7679    1.3921    1.8099 H   0  0  0  0  0  0  0  0  0  0  0  0
   -5.6077   -0.0735    0.3167 H   0  0  0  0  0  0  0  0  0  0  0  0
   -4.5792   -1.6006    2.2117 H   0  0  0  0  0  0  0  0  0  0  0  0
   -5.4572   -2.2712    0.8251 H   0  0  0  0  0  0  0  0  0  0  0  0
   -2.5571   -2.4834    1.5739 H   0  0  0  0  0  0  0  0  0  0  0  0
   -3.6630   -3.6375    0.8063 H   0  0  0  0  0  0  0  0  0  0  0  0
   -3.3471   -2.5797   -1.3940 H   0  0  0  0  0  0  0  0  0  0  0  0
   -1.7342   -2.8923   -0.5395 H   0  0  0  0  0  0  0  0  0  0  0  0
   -2.0199   -0.5631    0.4219 H   0  0  0  0  0  0  0  0  0  0  0  0
   -1.6178   -0.5911   -2.6051 H   0  0  0  0  0  0  0  0  0  0  0  0
    0.3763    1.3564   -2.7535 H   0  0  0  0  0  0  0  0  0  0  0  0
    1.1383   -0.3149   -2.7864 H   0  0  0  0  0  0  0  0  0  0  0  0
    4.9087   -1.1382   -0.2003 H   0  0  0  0  0  0  0  0  0  0  0  0
    7.0599   -1.7703    0.8532 H   0  0  0  0  0  0  0  0  0  0  0  0
    8.4715   -0.0266    1.9167 H   0  0  0  0  0  0  0  0  0  0  0  0
    7.7720    2.2677    1.9345 H   0  0  0  0  0  0  0  0  0  0  0  0
   -4.2947   -0.6698   -1.6276 H   0  0  0  0  0  0  0  0  0  0  0  0
   -4.4821    1.8715   -0.6154 H   0  0  0  0  0  0  0  0  0  0  0  0
   -2.6605    1.7021   -0.8756 H   0  0  0  0  0  0  0  0  0  0  0  0
   -3.8021    1.4693   -2.2119 H   0  0  0  0  0  0  0  0  0  0  0  0
  1  2  1  0
  2  3  1  0
  3  4  1  0
  4  5  1  0
  5  6  1  0
  6  7  1  0
  7  8  1  0
  8  9  2  0
  8 10  1  0
 10 11  1  0
 11 12  1  0
 12 13  2  0
 13 14  1  0
 14 15  1  0
 15 16  2  0
 16 17  1  0
 17 18  2  0
 18 19  1  0
 19 20  2  0
 20 21  1  0
 14 22  2  0
  6 23  1  0
 23 24  1  0
 23  2  1  0
 22 11  1  0
 20 15  1  0
  1 25  1  0
  1 26  1  0
  1 27  1  0
  2 28  1  6
  3 29  1  0
  3 30  1  0
  4 31  1  0
  4 32  1  0
  5 33  1  0
  5 34  1  0
  6 35  1  1
  7 36  1  0
 10 37  1  0
 10 38  1  0
 16 39  1  0
 17 40  1  0
 18 41  1  0
 19 42  1  0
 23 43  1  6
 24 44  1  0
 24 45  1  0
 24 46  1  0
M  END
$$$$
