FCG17585042_QVINAW_9
     RDKit          3D

 25 28  0  0  0  0  0  0  0  0999 V2000
   11.2430    2.8880   14.3730 C   0  0  0  0  0  0  0  0  0  0  0  0
   12.5300    3.4130   13.9180 N   0  0  0  0  0  0  0  0  0  0  0  0
   13.1640    3.1630   12.7540 C   0  0  0  0  0  0  0  0  0  0  0  0
   12.6210    2.3270   11.6320 C   0  0  0  0  0  0  0  0  0  0  0  0
   11.5150    3.0490   10.9120 C   0  0  0  0  0  0  0  0  0  0  0  0
   10.3320    2.3760   10.5590 C   0  0  0  0  0  0  0  0  0  0  0  0
    9.3120    3.0520    9.8830 C   0  0  0  0  0  0  0  0  0  0  0  0
    9.4620    4.4020    9.5560 C   0  0  0  0  0  0  0  0  0  0  0  0
   10.6330    5.0800    9.9050 C   0  0  0  0  0  0  0  0  0  0  0  0
   11.6570    4.4090   10.5810 C   0  0  0  0  0  0  0  0  0  0  0  0
   14.3840    3.7340   12.7280 N   0  0  0  0  0  0  0  0  0  0  0  0
   14.5440    4.3630   13.8830 N   0  0  0  0  0  0  0  0  0  0  0  0
   13.4210    4.1620   14.5970 C   0  0  0  0  0  0  0  0  0  0  0  0
   13.1620    4.8380   16.2410 S   0  0  0  0  0  0  0  0  0  0  0  0
   14.8630    4.4980   16.8160 C   0  0  0  0  0  0  0  0  0  0  0  0
   15.0690    3.0300   17.0220 C   0  0  0  0  0  0  0  0  0  0  0  0
   14.1650    2.3120   17.7530 N   0  0  0  0  0  0  0  0  0  0  0  0
   14.3930    0.9970   17.9910 C   0  0  0  0  0  0  0  0  0  0  0  0
   13.5590    0.1540   18.7270 C   0  0  0  0  0  0  0  0  0  0  0  0
   14.0640   -1.1450   18.8130 C   0  0  0  0  0  0  0  0  0  0  0  0
   15.5350   -1.2300   17.9770 S   0  0  0  0  0  0  0  0  0  0  0  0
   15.5270    0.3820   17.5070 C   0  0  0  0  0  0  0  0  0  0  0  0
   16.4500    1.1080   16.7660 C   0  0  0  0  0  0  0  0  0  0  0  0
   17.4960    0.5700   16.3200 O   0  0  0  0  0  0  0  0  0  0  0  0
   16.2000    2.4270   16.5400 N   0  0  0  0  0  2  0  0  0  0  0  0
  1  2  1  0
  2  3  1  0
  3  4  1  0
  4  5  1  0
  5  6  2  0
  6  7  1  0
  7  8  2  0
  8  9  1  0
  9 10  2  0
  3 11  2  0
 11 12  1  0
 12 13  2  0
 13 14  1  0
 14 15  1  0
 15 16  1  0
 16 17  2  0
 17 18  1  0
 18 19  1  0
 19 20  2  0
 20 21  1  0
 21 22  1  0
 22 23  1  0
 23 24  2  0
 23 25  1  0
 13  2  1  0
 25 16  1  0
 10  5  1  0
 22 18  2  0
M  CHG  1  25  -1
M  END
$$$$
FCG17822054_QVINAW_9
     RDKit          3D

 21 23  0  0  0  0  0  0  0  0999 V2000
   14.4520   -5.7170   18.5340 N   0  0  0  0  0  0  0  0  0  0  0  0
   14.7510   -4.6010   18.4880 C   0  0  0  0  0  0  0  0  0  0  0  0
   15.1440   -3.2220   18.4430 C   0  0  0  0  0  0  0  0  0  0  0  0
   14.1640   -2.2540   18.3060 C   0  0  0  0  0  0  0  0  0  0  0  0
   14.5170   -0.9440   18.2620 C   0  0  0  0  0  0  0  0  0  0  0  0
   15.8450   -0.5260   18.3480 C   0  0  0  0  0  0  0  0  0  0  0  0
   16.1060    0.9150   18.2880 C   0  0  0  0  0  0  0  0  0  0  0  0
   14.9780    1.8940   19.2750 S   0  0  0  0  0  0  0  0  0  0  0  0
   14.1800    3.1000   18.2310 C   0  0  0  0  0  0  0  0  0  0  0  0
   13.4170    4.1230   18.6260 N   0  0  0  0  0  0  0  0  0  0  0  0
   13.0170    4.7780   17.5560 N   0  0  0  0  0  0  0  0  0  0  0  0
   13.5290    4.1690   16.4840 C   0  0  0  0  0  0  0  0  0  0  0  0
   13.3080    4.6070   15.0870 C   0  0  0  0  0  0  0  0  0  0  0  0
   12.9770    3.4340   14.3100 N   0  0  0  0  0  0  0  0  0  0  0  0
   13.4880    3.4730   12.9790 C   0  0  0  0  0  0  0  0  0  0  0  0
   12.5440    2.6270   12.1370 C   0  0  0  0  0  0  0  0  0  0  0  0
   11.3290    2.3860   12.9880 C   0  0  0  0  0  0  0  0  0  0  0  0
   11.5540    3.2030   14.2260 C   0  0  0  0  0  0  0  0  0  0  0  0
   14.2280    3.1570   16.9230 O   0  0  0  0  0  0  0  0  0  0  0  0
   16.8040   -1.5000   18.4830 C   0  0  0  0  0  0  0  0  0  0  0  0
   16.4520   -2.8350   18.5290 C   0  0  0  0  0  0  0  0  0  0  0  0
  1  2  3  0
  2  3  1  0
  3  4  2  0
  4  5  1  0
  5  6  2  0
  6  7  1  0
  7  8  1  0
  8  9  1  0
  9 10  2  0
 10 11  1  0
 11 12  2  0
 12 13  1  0
 13 14  1  0
 14 15  1  0
 15 16  1  0
 16 17  1  0
 17 18  1  0
 12 19  1  0
  6 20  1  0
 20 21  2  0
 21  3  1  0
 19  9  1  0
 18 14  1  0
M  END
$$$$
