FCG18472628_QVINAW_8
     RDKit          3D

 24 26  0  0  0  0  0  0  0  0999 V2000
   14.3240    7.4920   14.0870 C   0  0  0  0  0  0  0  0  0  0  0  0
   13.0960    6.7200   13.6730 C   0  0  2  0  0  0  0  0  0  0  0  0
   11.8890    7.5800   13.8030 C   0  0  2  0  0  0  0  0  0  0  0  0
   11.9800    8.3090   15.1400 C   0  0  0  0  0  0  0  0  0  0  0  0
   10.5870    6.8990   13.6560 C   0  0  0  0  0  0  0  0  0  0  0  0
   10.5250    5.4700   14.0070 C   0  0  0  0  0  0  0  0  0  0  0  0
   11.7880    4.6980   13.8140 C   0  0  0  0  0  0  0  0  0  0  0  0
   12.8810    5.4980   14.5370 C   0  0  1  0  0  0  0  0  0  0  0  0
   14.0500    4.7390   14.7660 N   0  0  0  0  0  0  0  0  0  0  0  0
   14.6150    4.7300   16.0870 C   0  0  0  0  0  0  0  0  0  0  0  0
   14.0450    5.4030   16.9990 O   0  0  0  0  0  0  0  0  0  0  0  0
   15.8240    3.9740   16.4250 C   0  0  0  0  0  0  0  0  0  0  0  0
   15.4830    2.8670   17.2910 N   0  0  0  0  0  0  0  0  0  0  0  0
   14.9060    2.9540   18.4860 N   0  0  0  0  0  0  0  0  0  0  0  0
   14.7430    1.7360   18.9950 N   0  0  0  0  0  0  0  0  0  0  0  0
   15.2220    0.8460   18.1150 C   0  0  0  0  0  0  0  0  0  0  0  0
   15.2750   -0.6060   18.2060 C   0  0  0  0  0  0  0  0  0  0  0  0
   14.1460   -1.3720   18.0090 C   0  0  0  0  0  0  0  0  0  0  0  0
   14.1890   -2.7350   18.0940 C   0  0  0  0  0  0  0  0  0  0  0  0
   15.3690   -3.3810   18.3800 C   0  0  0  0  0  0  0  0  0  0  0  0
   16.5420   -2.6490   18.5880 C   0  0  0  0  0  0  0  0  0  0  0  0
   16.4400   -1.2850   18.4910 C   0  0  0  0  0  0  0  0  0  0  0  0
   18.0070   -0.2250   18.7640 Br  0  0  0  0  0  0  0  0  0  0  0  0
   15.6740    1.5640   17.0720 N   0  0  0  0  0  0  0  0  0  0  0  0
  2  1  1  1
  2  3  1  0
  3  4  1  1
  3  5  1  0
  5  6  1  0
  6  7  1  0
  7  8  1  0
  8  9  1  6
  9 10  1  0
 10 11  2  0
 10 12  1  0
 12 13  1  0
 13 14  1  0
 14 15  2  0
 15 16  1  0
 16 17  1  0
 17 18  2  0
 18 19  1  0
 19 20  2  0
 20 21  1  0
 21 22  2  0
 22 23  1  0
 16 24  2  0
  8  2  1  0
 24 13  1  0
 22 17  1  0
M  END
$$$$
FCG16141527_QVINAW_9
     RDKit          3D

 23 26  0  0  0  0  0  0  0  0999 V2000
   13.4680    2.3830   12.0210 C   0  0  0  0  0  0  0  0  0  0  0  0
   13.5790    3.5120   12.9900 C   0  0  0  0  0  0  0  0  0  0  0  0
   14.0300    3.2820   14.2520 N   0  0  0  0  0  0  0  0  0  0  0  0
   14.1800    4.2890   15.1500 C   0  0  0  0  0  0  0  0  0  0  0  0
   14.8460    3.8860   16.7750 S   0  0  0  0  0  0  0  0  0  0  0  0
   16.2760    2.9390   16.1360 C   0  0  0  0  0  0  0  0  0  0  0  0
   16.2650    1.5350   16.6630 C   0  0  0  0  0  0  0  0  0  0  0  0
   17.2670    0.6220   16.2850 C   0  0  0  0  0  0  0  0  0  0  0  0
   17.1580   -0.7120   16.6990 C   0  0  0  0  0  0  0  0  0  0  0  0
   18.0360   -1.5540   16.3640 O   0  0  0  0  0  0  0  0  0  0  0  0
   16.0850   -1.0820   17.4530 N   0  0  0  0  0  0  0  0  0  0  0  0
   15.8040   -2.3320   17.9140 C   0  0  0  0  0  0  0  0  0  0  0  0
   14.6170   -2.4130   18.6430 C   0  0  0  0  0  0  0  0  0  0  0  0
   13.9100   -0.8760   18.7050 S   0  0  0  0  0  0  0  0  0  0  0  0
   15.1450   -0.1810   17.8110 C   0  0  0  0  0  0  0  0  0  0  0  0
   15.2150    1.1150   17.4260 N   0  0  0  0  0  0  0  0  0  0  0  0
   13.8550    5.6090   14.7730 C   0  0  0  0  0  0  0  0  0  0  0  0
   13.9640    6.7060   15.6500 C   0  0  0  0  0  0  0  0  0  0  0  0
   13.6840    7.9980   15.1960 C   0  0  0  0  0  0  0  0  0  0  0  0
   13.2800    8.2070   13.8750 C   0  0  0  0  0  0  0  0  0  0  0  0
   13.1460    7.1260   13.0020 C   0  0  0  0  0  0  0  0  0  0  0  0
   13.4280    5.8290   13.4440 C   0  0  0  0  0  0  0  0  0  0  0  0
   13.3030    4.7800   12.5900 N   0  0  0  0  0  0  0  0  0  0  0  0
  1  2  1  0
  2  3  2  0
  3  4  1  0
  4  5  1  0
  5  6  1  0
  6  7  1  0
  7  8  2  0
  8  9  1  0
  9 10  2  0
  9 11  1  0
 11 12  1  0
 12 13  2  0
 13 14  1  0
 14 15  1  0
 15 16  2  0
  4 17  2  0
 17 18  1  0
 18 19  2  0
 19 20  1  0
 20 21  2  0
 21 22  1  0
 22 23  2  0
 23  2  1  0
 16  7  1  0
 22 17  1  0
 15 11  1  0
M  END
$$$$
