FCG1390566
     RDKit          3D

 23 24  0  0  0  0  0  0  0  0999 V2000
    0.8839   -0.1173    2.2208 C   0  0  0  0  0  0  0  0  0  0  0  0
    0.2724    1.2140    2.2129 N   0  0  0  0  0  0  0  0  0  0  0  0
    0.5913    2.1897    3.2585 C   0  0  0  0  0  0  0  0  0  0  0  0
   -0.6499    1.5585    1.1635 C   0  0  0  0  0  0  0  0  0  0  0  0
   -0.9890    0.7119    0.1659 N   0  0  0  0  0  0  0  0  0  0  0  0
   -1.8775    1.2765   -0.6966 C   0  0  0  0  0  0  0  0  0  0  0  0
   -2.3652    0.5494   -1.9099 C   0  0  0  0  0  0  0  0  0  0  0  0
   -1.4489    0.8072   -3.0610 C   0  0  0  0  0  0  0  0  0  0  0  0
   -1.5774    1.8369   -3.9162 N   0  0  0  0  0  0  0  0  0  0  0  0
   -0.5383    1.7271   -4.7276 N   0  0  0  0  0  0  0  0  0  0  0  0
    0.1966    0.6836   -4.3763 N   0  0  0  0  0  0  0  0  0  0  0  0
   -0.3450    0.0870   -3.3271 N   0  0  0  0  0  2  0  0  0  0  0  0
   -2.2401    2.5891   -0.4002 C   0  0  0  0  0  0  0  0  0  0  0  0
   -1.4305    3.0438    1.0018 S   0  0  0  0  0  0  0  0  0  0  0  0
    1.4638   -0.2680    1.2858 H   0  0  0  0  0  0  0  0  0  0  0  0
    0.0914   -0.8924    2.2877 H   0  0  0  0  0  0  0  0  0  0  0  0
    1.5723   -0.2488    3.0817 H   0  0  0  0  0  0  0  0  0  0  0  0
   -0.3350    2.4729    3.8014 H   0  0  0  0  0  0  0  0  0  0  0  0
    1.3134    1.7806    3.9958 H   0  0  0  0  0  0  0  0  0  0  0  0
    1.0401    3.0962    2.8005 H   0  0  0  0  0  0  0  0  0  0  0  0
   -2.4030   -0.5414   -1.7022 H   0  0  0  0  0  0  0  0  0  0  0  0
   -3.3934    0.8833   -2.1680 H   0  0  0  0  0  0  0  0  0  0  0  0
   -2.9161    3.2093   -0.9737 H   0  0  0  0  0  0  0  0  0  0  0  0
  1  2  1  0
  2  3  1  0
  2  4  1  0
  4  5  2  0
  5  6  1  0
  6  7  1  0
  7  8  1  0
  8  9  2  0
  9 10  1  0
 10 11  2  0
 11 12  1  0
  6 13  2  0
 13 14  1  0
 14  4  1  0
 12  8  1  0
  1 15  1  0
  1 16  1  0
  1 17  1  0
  3 18  1  0
  3 19  1  0
  3 20  1  0
  7 21  1  0
  7 22  1  0
 13 23  1  0
M  CHG  1  12  -1
M  END
$$$$
FCG16141527
     RDKit          3D

 35 38  0  0  0  0  0  0  0  0999 V2000
   -3.3690   -2.8885    2.2697 C   0  0  0  0  0  0  0  0  0  0  0  0
   -2.1448   -2.0361    2.2994 C   0  0  0  0  0  0  0  0  0  0  0  0
   -1.2540   -2.0915    1.2751 N   0  0  0  0  0  0  0  0  0  0  0  0
   -0.1126   -1.3545    1.2827 C   0  0  0  0  0  0  0  0  0  0  0  0
    0.9959   -1.4920   -0.1261 S   0  0  0  0  0  0  0  0  0  0  0  0
    0.2000   -0.1281   -1.0342 C   0  0  0  0  0  0  0  0  0  0  0  0
    0.9442    0.1217   -2.3078 C   0  0  0  0  0  0  0  0  0  0  0  0
    2.0896    0.9417   -2.3171 C   0  0  0  0  0  0  0  0  0  0  0  0
    2.7809    1.1255   -3.5215 C   0  0  0  0  0  0  0  0  0  0  0  0
    3.8066    1.8580   -3.5581 O   0  0  0  0  0  0  0  0  0  0  0  0
    2.3269    0.4991   -4.6428 N   0  0  0  0  0  0  0  0  0  0  0  0
    2.8714    0.5621   -5.8894 C   0  0  0  0  0  0  0  0  0  0  0  0
    2.1908   -0.1922   -6.8450 C   0  0  0  0  0  0  0  0  0  0  0  0
    0.8753   -0.9543   -6.0997 S   0  0  0  0  0  0  0  0  0  0  0  0
    1.2317   -0.2900   -4.6021 C   0  0  0  0  0  0  0  0  0  0  0  0
    0.5382   -0.4918   -3.4557 N   0  0  0  0  0  0  0  0  0  0  0  0
    0.1679   -0.5205    2.3833 C   0  0  0  0  0  0  0  0  0  0  0  0
    1.3280    0.2735    2.4669 C   0  0  0  0  0  0  0  0  0  0  0  0
    1.5470    1.0796    3.5884 C   0  0  0  0  0  0  0  0  0  0  0  0
    0.6184    1.1017    4.6323 C   0  0  0  0  0  0  0  0  0  0  0  0
   -0.5363    0.3184    4.5611 C   0  0  0  0  0  0  0  0  0  0  0  0
   -0.7670   -0.4907    3.4427 C   0  0  0  0  0  0  0  0  0  0  0  0
   -1.8915   -1.2490    3.3768 N   0  0  0  0  0  0  0  0  0  0  0  0
   -4.1901   -2.3993    2.8351 H   0  0  0  0  0  0  0  0  0  0  0  0
   -3.1447   -3.8728    2.7306 H   0  0  0  0  0  0  0  0  0  0  0  0
   -3.7022   -3.0435    1.2218 H   0  0  0  0  0  0  0  0  0  0  0  0
    0.1968    0.7927   -0.4114 H   0  0  0  0  0  0  0  0  0  0  0  0
   -0.8534   -0.3999   -1.2611 H   0  0  0  0  0  0  0  0  0  0  0  0
    2.4341    1.4213   -1.4084 H   0  0  0  0  0  0  0  0  0  0  0  0
    3.7548    1.1444   -6.1197 H   0  0  0  0  0  0  0  0  0  0  0  0
    2.4615   -0.2756   -7.8888 H   0  0  0  0  0  0  0  0  0  0  0  0
    2.0660    0.2797    1.6760 H   0  0  0  0  0  0  0  0  0  0  0  0
    2.4395    1.6889    3.6485 H   0  0  0  0  0  0  0  0  0  0  0  0
    0.7940    1.7273    5.4979 H   0  0  0  0  0  0  0  0  0  0  0  0
   -1.2506    0.3424    5.3748 H   0  0  0  0  0  0  0  0  0  0  0  0
  1  2  1  0
  2  3  2  0
  3  4  1  0
  4  5  1  0
  5  6  1  0
  6  7  1  0
  7  8  2  0
  8  9  1  0
  9 10  2  0
  9 11  1  0
 11 12  1  0
 12 13  2  0
 13 14  1  0
 14 15  1  0
 15 16  2  0
  4 17  2  0
 17 18  1  0
 18 19  2  0
 19 20  1  0
 20 21  2  0
 21 22  1  0
 22 23  2  0
 23  2  1  0
 16  7  1  0
 22 17  1  0
 15 11  1  0
  1 24  1  0
  1 25  1  0
  1 26  1  0
  6 27  1  0
  6 28  1  0
  8 29  1  0
 12 30  1  0
 13 31  1  0
 18 32  1  0
 19 33  1  0
 20 34  1  0
 21 35  1  0
M  END
$$$$
FCG16425532
     RDKit          3D

 30 31  0  0  0  0  0  0  0  0999 V2000
   -2.0221   -2.4939    3.1946 C   0  0  0  0  0  0  0  0  0  0  0  0
   -0.9576   -2.7463    2.2259 N   0  0  0  0  0  0  0  0  0  0  0  0
   -0.3675   -3.9397    2.0146 C   0  0  0  0  0  0  0  0  0  0  0  0
    0.5953   -3.8232    1.0331 C   0  0  0  0  0  0  0  0  0  0  0  0
    0.5922   -2.5032    0.6290 C   0  0  0  0  0  0  0  0  0  0  0  0
   -0.3754   -1.8623    1.3814 C   0  0  0  0  0  0  0  0  0  0  0  0
   -0.7019   -0.4276    1.2629 C   0  0  0  0  0  0  0  0  0  0  0  0
   -1.5895    0.0920    1.9921 O   0  0  0  0  0  0  0  0  0  0  0  0
   -0.0116    0.3532    0.3312 O   0  0  0  0  0  0  0  0  0  0  0  0
   -0.2484    1.7473    0.1671 C   0  0  0  0  0  0  0  0  0  0  0  0
    0.6846    2.2902   -0.8842 C   0  0  0  0  0  0  0  0  0  0  0  0
    0.1801    2.6168   -2.1555 C   0  0  0  0  0  0  0  0  0  0  0  0
    1.0304    3.1020   -3.1523 C   0  0  0  0  0  0  0  0  0  0  0  0
    2.3931    3.2589   -2.8953 C   0  0  0  0  0  0  0  0  0  0  0  0
    2.9119    2.9271   -1.6417 C   0  0  0  0  0  0  0  0  0  0  0  0
    2.0687    2.4391   -0.6335 C   0  0  0  0  0  0  0  0  0  0  0  0
    2.6427    2.0914    0.6447 C   0  0  0  0  0  0  0  0  0  0  0  0
    3.1021    1.8118    1.6694 N   0  0  0  0  0  0  0  0  0  0  0  0
   -1.6833   -1.7425    3.9383 H   0  0  0  0  0  0  0  0  0  0  0  0
   -2.2885   -3.4271    3.7358 H   0  0  0  0  0  0  0  0  0  0  0  0
   -2.9276   -2.1228    2.6705 H   0  0  0  0  0  0  0  0  0  0  0  0
   -0.6185   -4.8508    2.5428 H   0  0  0  0  0  0  0  0  0  0  0  0
    1.2300   -4.6129    0.6542 H   0  0  0  0  0  0  0  0  0  0  0  0
    1.2271   -2.0625   -0.1287 H   0  0  0  0  0  0  0  0  0  0  0  0
   -1.3101    1.9111   -0.1209 H   0  0  0  0  0  0  0  0  0  0  0  0
   -0.0748    2.2757    1.1297 H   0  0  0  0  0  0  0  0  0  0  0  0
   -0.8731    2.4962   -2.3774 H   0  0  0  0  0  0  0  0  0  0  0  0
    0.6321    3.3545   -4.1265 H   0  0  0  0  0  0  0  0  0  0  0  0
    3.0494    3.6341   -3.6699 H   0  0  0  0  0  0  0  0  0  0  0  0
    3.9732    3.0479   -1.4592 H   0  0  0  0  0  0  0  0  0  0  0  0
  1  2  1  0
  2  3  1  0
  3  4  2  0
  4  5  1  0
  5  6  2  0
  6  7  1  0
  7  8  2  0
  7  9  1  0
  9 10  1  0
 10 11  1  0
 11 12  2  0
 12 13  1  0
 13 14  2  0
 14 15  1  0
 15 16  2  0
 16 17  1  0
 17 18  3  0
  6  2  1  0
 16 11  1  0
  1 19  1  0
  1 20  1  0
  1 21  1  0
  3 22  1  0
  4 23  1  0
  5 24  1  0
 10 25  1  0
 10 26  1  0
 12 27  1  0
 13 28  1  0
 14 29  1  0
 15 30  1  0
M  END
$$$$
FCG16600623
     RDKit          3D

 40 43  0  0  0  0  0  0  0  0999 V2000
   -1.1905   -0.2583   -2.9989 C   0  0  0  0  0  0  0  0  0  0  0  0
   -1.1837    0.4860   -1.6734 C   0  0  2  0  0  0  0  0  0  0  0  0
    0.1336    0.2964   -1.1345 O   0  0  0  0  0  0  0  0  0  0  0  0
    0.9945    1.3438   -0.9258 C   0  0  0  0  0  0  0  0  0  0  0  0
    0.6073    2.5000   -1.2191 O   0  0  0  0  0  0  0  0  0  0  0  0
    2.3545    1.1390   -0.3683 C   0  0  0  0  0  0  0  0  0  0  0  0
    2.9643    0.0104    0.0089 C   0  0  0  0  0  0  0  0  0  0  0  0
    4.2309    0.0743    0.4969 C   0  0  0  0  0  0  0  0  0  0  0  0
    4.8183    1.2877    0.5775 C   0  0  0  0  0  0  0  0  0  0  0  0
    3.5390    2.3805   -0.0567 S   0  0  0  0  0  0  0  0  0  0  0  0
    6.2016    1.2132    1.1145 C   0  0  0  0  0  0  0  0  0  0  0  0
    6.5510   -0.2122    0.6544 C   0  0  0  0  0  0  0  0  0  0  0  0
    5.2688   -0.9082    1.0367 C   0  0  0  0  0  0  0  0  0  0  0  0
   -2.1794   -0.0462   -0.7429 C   0  0  0  0  0  0  0  0  0  0  0  0
   -3.2809    0.6715   -0.4698 N   0  0  0  0  0  0  0  0  0  0  0  0
   -4.2434    0.2632    0.3683 C   0  0  0  0  0  0  0  0  0  0  0  0
   -5.3736    1.0417    0.6242 C   0  0  0  0  0  0  0  0  0  0  0  0
   -6.3390    0.5844    1.4924 C   0  0  0  0  0  0  0  0  0  0  0  0
   -6.1670   -0.6386    2.0928 C   0  0  0  0  0  0  0  0  0  0  0  0
   -5.0580   -1.4190    1.8513 C   0  0  0  0  0  0  0  0  0  0  0  0
   -4.0820   -0.9605    0.9758 C   0  0  0  0  0  0  0  0  0  0  0  0
   -2.9516   -1.6996    0.6969 C   0  0  0  0  0  0  0  0  0  0  0  0
   -2.8092   -2.8155    1.2539 O   0  0  0  0  0  0  0  0  0  0  0  0
   -2.0167   -1.2596   -0.1423 N   0  0  0  0  0  0  0  0  0  0  0  0
   -1.3112   -1.3389   -2.7631 H   0  0  0  0  0  0  0  0  0  0  0  0
   -1.9741    0.1204   -3.6821 H   0  0  0  0  0  0  0  0  0  0  0  0
   -0.1810   -0.1486   -3.4459 H   0  0  0  0  0  0  0  0  0  0  0  0
   -1.3910    1.5328   -1.8829 H   0  0  0  0  0  0  0  0  0  0  0  0
    2.4104   -0.9654   -0.0876 H   0  0  0  0  0  0  0  0  0  0  0  0
    6.8769    1.9584    0.6501 H   0  0  0  0  0  0  0  0  0  0  0  0
    6.1532    1.2921    2.2067 H   0  0  0  0  0  0  0  0  0  0  0  0
    6.6302   -0.1822   -0.4448 H   0  0  0  0  0  0  0  0  0  0  0  0
    7.4350   -0.6000    1.1617 H   0  0  0  0  0  0  0  0  0  0  0  0
    5.1167   -0.8855    2.1377 H   0  0  0  0  0  0  0  0  0  0  0  0
    5.1662   -1.8987    0.5993 H   0  0  0  0  0  0  0  0  0  0  0  0
   -5.4901    1.9990    0.1429 H   0  0  0  0  0  0  0  0  0  0  0  0
   -7.2249    1.2012    1.6893 H   0  0  0  0  0  0  0  0  0  0  0  0
   -6.9332   -1.0107    2.7872 H   0  0  0  0  0  0  0  0  0  0  0  0
   -4.9243   -2.3771    2.3223 H   0  0  0  0  0  0  0  0  0  0  0  0
   -1.1478   -1.7714   -0.3892 H   0  0  0  0  0  0  0  0  0  0  0  0
  1  2  1  0
  2  3  1  0
  3  4  1  0
  4  5  2  0
  4  6  1  0
  6  7  2  0
  7  8  1  0
  8  9  2  0
  9 10  1  0
  9 11  1  0
 11 12  1  0
 12 13  1  0
  2 14  1  0
 14 15  2  0
 15 16  1  0
 16 17  2  0
 17 18  1  0
 18 19  2  0
 19 20  1  0
 20 21  2  0
 21 22  1  0
 22 23  2  0
 22 24  1  0
 10  6  1  0
 24 14  1  0
 13  8  1  0
 21 16  1  0
  1 25  1  0
  1 26  1  0
  1 27  1  0
  2 28  1  6
  7 29  1  0
 11 30  1  0
 11 31  1  0
 12 32  1  0
 12 33  1  0
 13 34  1  0
 13 35  1  0
 17 36  1  0
 18 37  1  0
 19 38  1  0
 20 39  1  0
 24 40  1  0
M  END
$$$$
FCG16952409
     RDKit          3D

 47 49  0  0  0  0  0  0  0  0999 V2000
    7.2008    2.0618   -1.2559 C   0  0  0  0  0  0  0  0  0  0  0  0
    6.0787    1.5751   -0.3995 C   0  0  0  0  0  0  0  0  0  0  0  0
    5.0303    2.2511   -0.3195 O   0  0  0  0  0  0  0  0  0  0  0  0
    6.2570    0.3629    0.2855 N   0  0  0  0  0  0  0  0  0  0  0  0
    5.2516   -0.2075    1.1351 C   0  0  0  0  0  0  0  0  0  0  0  0
    4.0342   -0.4864    0.2836 C   0  0  0  0  0  0  0  0  0  0  0  0
    2.9280    0.3084    0.1466 C   0  0  0  0  0  0  0  0  0  0  0  0
    2.0599   -0.3463   -0.7417 C   0  0  0  0  0  0  0  0  0  0  0  0
    2.6835   -1.5146   -1.1019 C   0  0  0  0  0  0  0  0  0  0  0  0
    2.1813   -2.5325   -1.9993 C   0  0  0  0  0  0  0  0  0  0  0  0
    2.9811   -3.4984   -2.2694 O   0  0  0  0  0  0  0  0  0  0  0  0
    0.8809   -2.5699   -2.6195 C   0  0  0  0  0  0  0  0  0  0  0  0
   -0.1417   -1.7785   -2.1014 O   0  0  0  0  0  0  0  0  0  0  0  0
   -0.6924   -1.9305   -0.8487 C   0  0  0  0  0  0  0  0  0  0  0  0
   -0.2699   -2.8284   -0.1011 O   0  0  0  0  0  0  0  0  0  0  0  0
   -1.7754   -1.0703   -0.3375 C   0  0  0  0  0  0  0  0  0  0  0  0
   -2.4156   -1.0694    0.8202 C   0  0  0  0  0  0  0  0  0  0  0  0
   -3.3895   -0.1584    1.0481 C   0  0  0  0  0  0  0  0  0  0  0  0
   -3.6684    0.7243    0.0657 C   0  0  0  0  0  0  0  0  0  0  0  0
   -2.5315    0.2604   -1.2108 S   0  0  0  0  0  0  0  0  0  0  0  0
   -4.5837    1.8567   -0.1837 C   0  0  0  0  0  0  0  0  0  0  0  0
   -5.9692    1.5482    0.3246 C   0  0  0  0  0  0  0  0  0  0  0  0
   -5.9265    1.4025    1.8258 C   0  0  0  0  0  0  0  0  0  0  0  0
   -5.6110   -0.0313    2.1482 C   0  0  0  0  0  0  0  0  0  0  0  0
   -4.1340   -0.1560    2.3932 C   0  0  0  0  0  0  0  0  0  0  0  0
    3.8497   -1.5410   -0.4627 O   0  0  0  0  0  0  0  0  0  0  0  0
    6.7429    2.5849   -2.1172 H   0  0  0  0  0  0  0  0  0  0  0  0
    7.7878    1.2237   -1.6621 H   0  0  0  0  0  0  0  0  0  0  0  0
    7.8485    2.7430   -0.6774 H   0  0  0  0  0  0  0  0  0  0  0  0
    7.1707   -0.1524    0.1712 H   0  0  0  0  0  0  0  0  0  0  0  0
    5.6095   -1.1691    1.5540 H   0  0  0  0  0  0  0  0  0  0  0  0
    4.9577    0.4795    1.9573 H   0  0  0  0  0  0  0  0  0  0  0  0
    2.7500    1.2532    0.6369 H   0  0  0  0  0  0  0  0  0  0  0  0
    1.1182    0.0829   -1.0357 H   0  0  0  0  0  0  0  0  0  0  0  0
    0.5758   -3.6512   -2.6915 H   0  0  0  0  0  0  0  0  0  0  0  0
    0.9352   -2.2758   -3.7249 H   0  0  0  0  0  0  0  0  0  0  0  0
   -2.1361   -1.8298    1.5978 H   0  0  0  0  0  0  0  0  0  0  0  0
   -4.6450    2.1216   -1.2593 H   0  0  0  0  0  0  0  0  0  0  0  0
   -4.2111    2.7303    0.4001 H   0  0  0  0  0  0  0  0  0  0  0  0
   -6.2848    0.5688   -0.0921 H   0  0  0  0  0  0  0  0  0  0  0  0
   -6.7171    2.2825   -0.0113 H   0  0  0  0  0  0  0  0  0  0  0  0
   -5.2021    2.0936    2.2820 H   0  0  0  0  0  0  0  0  0  0  0  0
   -6.9285    1.7053    2.2146 H   0  0  0  0  0  0  0  0  0  0  0  0
   -6.1275   -0.3570    3.0754 H   0  0  0  0  0  0  0  0  0  0  0  0
   -5.8736   -0.7214    1.3121 H   0  0  0  0  0  0  0  0  0  0  0  0
   -3.7602    0.7196    2.9391 H   0  0  0  0  0  0  0  0  0  0  0  0
   -3.9189   -1.0641    2.9661 H   0  0  0  0  0  0  0  0  0  0  0  0
  1  2  1  0
  2  3  2  0
  2  4  1  0
  4  5  1  0
  5  6  1  0
  6  7  2  0
  7  8  1  0
  8  9  2  0
  9 10  1  0
 10 11  2  0
 10 12  1  0
 12 13  1  0
 13 14  1  0
 14 15  2  0
 14 16  1  0
 16 17  2  0
 17 18  1  0
 18 19  2  0
 19 20  1  0
 19 21  1  0
 21 22  1  0
 22 23  1  0
 23 24  1  0
 24 25  1  0
  9 26  1  0
 26  6  1  0
 20 16  1  0
 25 18  1  0
  1 27  1  0
  1 28  1  0
  1 29  1  0
  4 30  1  0
  5 31  1  0
  5 32  1  0
  7 33  1  0
  8 34  1  0
 12 35  1  0
 12 36  1  0
 17 37  1  0
 21 38  1  0
 21 39  1  0
 22 40  1  0
 22 41  1  0
 23 42  1  0
 23 43  1  0
 24 44  1  0
 24 45  1  0
 25 46  1  0
 25 47  1  0
M  END
$$$$
FCG17274676
     RDKit          3D

 47 50  0  0  0  0  0  0  0  0999 V2000
    1.7341   -0.8293   -0.7206 C   0  0  0  0  0  0  0  0  0  0  0  0
    0.7278    0.3158   -0.7365 C   0  0  0  0  0  0  0  0  0  0  0  0
   -0.3160    0.1019    0.2773 N   0  0  0  0  0  0  0  0  0  0  0  0
   -0.2340    0.6629    1.6084 C   0  0  0  0  0  0  0  0  0  0  0  0
   -1.1987    0.5150    2.4082 O   0  0  0  0  0  0  0  0  0  0  0  0
    0.9492    1.4642    2.0646 C   0  0  0  0  0  0  0  0  0  0  0  0
    0.8632    2.7777    1.5199 O   0  0  0  0  0  0  0  0  0  0  0  0
    1.8267    3.7803    1.7030 C   0  0  0  0  0  0  0  0  0  0  0  0
    2.9910    3.5773    2.4652 C   0  0  0  0  0  0  0  0  0  0  0  0
    3.9196    4.6084    2.6143 C   0  0  0  0  0  0  0  0  0  0  0  0
    3.6986    5.8469    2.0092 C   0  0  0  0  0  0  0  0  0  0  0  0
    2.5404    6.0721    1.2456 C   0  0  0  0  0  0  0  0  0  0  0  0
    2.3262    7.3548    0.6239 N   0  0  0  0  0  0  0  0  0  0  0  0
    1.2425    7.8071   -0.0355 C   0  0  0  0  0  0  0  0  0  0  0  0
    1.4597    9.0662   -0.4581 N   0  0  0  0  0  0  0  0  0  0  0  0
    2.6840    9.3675   -0.0484 N   0  0  0  0  0  0  0  0  0  0  0  0
    3.2068    8.3408    0.6035 N   0  0  0  0  0  0  0  0  0  0  0  0
    1.6102    5.0250    1.0991 C   0  0  0  0  0  0  0  0  0  0  0  0
   -1.4598   -0.6953   -0.0815 C   0  0  0  0  0  0  0  0  0  0  0  0
   -2.4130   -0.1559   -0.9572 C   0  0  0  0  0  0  0  0  0  0  0  0
   -3.5414   -0.8905   -1.3213 C   0  0  0  0  0  0  0  0  0  0  0  0
   -3.7357   -2.1762   -0.8173 C   0  0  0  0  0  0  0  0  0  0  0  0
   -2.7954   -2.7422    0.0555 C   0  0  0  0  0  0  0  0  0  0  0  0
   -2.9866   -4.0409    0.5528 C   0  0  0  0  0  0  0  0  0  0  0  0
   -2.0458   -4.6098    1.4130 C   0  0  0  0  0  0  0  0  0  0  0  0
   -0.9084   -3.8906    1.7828 C   0  0  0  0  0  0  0  0  0  0  0  0
   -0.7033   -2.5970    1.2967 C   0  0  0  0  0  0  0  0  0  0  0  0
   -1.6430   -2.0022    0.4316 C   0  0  0  0  0  0  0  0  0  0  0  0
    2.1968   -0.9268    0.2831 H   0  0  0  0  0  0  0  0  0  0  0  0
    1.2299   -1.7837   -0.9823 H   0  0  0  0  0  0  0  0  0  0  0  0
    2.5338   -0.6327   -1.4656 H   0  0  0  0  0  0  0  0  0  0  0  0
    0.2707    0.3740   -1.7485 H   0  0  0  0  0  0  0  0  0  0  0  0
    1.2522    1.2801   -0.5762 H   0  0  0  0  0  0  0  0  0  0  0  0
    0.9557    1.5233    3.1749 H   0  0  0  0  0  0  0  0  0  0  0  0
    1.8886    0.9715    1.7388 H   0  0  0  0  0  0  0  0  0  0  0  0
    3.1875    2.6291    2.9454 H   0  0  0  0  0  0  0  0  0  0  0  0
    4.8144    4.4474    3.2017 H   0  0  0  0  0  0  0  0  0  0  0  0
    4.4320    6.6314    2.1415 H   0  0  0  0  0  0  0  0  0  0  0  0
    0.3233    7.2622   -0.1994 H   0  0  0  0  0  0  0  0  0  0  0  0
    0.7146    5.1593    0.5101 H   0  0  0  0  0  0  0  0  0  0  0  0
   -2.2798    0.8430   -1.3528 H   0  0  0  0  0  0  0  0  0  0  0  0
   -4.2702   -0.4609   -1.9964 H   0  0  0  0  0  0  0  0  0  0  0  0
   -4.6192   -2.7299   -1.1124 H   0  0  0  0  0  0  0  0  0  0  0  0
   -3.8609   -4.6169    0.2734 H   0  0  0  0  0  0  0  0  0  0  0  0
   -2.1970   -5.6126    1.7918 H   0  0  0  0  0  0  0  0  0  0  0  0
   -0.1807   -4.3383    2.4474 H   0  0  0  0  0  0  0  0  0  0  0  0
    0.1937   -2.0729    1.5985 H   0  0  0  0  0  0  0  0  0  0  0  0
  1  2  1  0
  2  3  1  0
  3  4  1  0
  4  5  2  0
  4  6  1  0
  6  7  1  0
  7  8  1  0
  8  9  2  0
  9 10  1  0
 10 11  2  0
 11 12  1  0
 12 13  1  0
 13 14  1  0
 14 15  2  0
 15 16  1  0
 16 17  2  0
 12 18  2  0
  3 19  1  0
 19 20  2  0
 20 21  1  0
 21 22  2  0
 22 23  1  0
 23 24  2  0
 24 25  1  0
 25 26  2  0
 26 27  1  0
 27 28  2  0
 18  8  1  0
 28 19  1  0
 17 13  1  0
 28 23  1  0
  1 29  1  0
  1 30  1  0
  1 31  1  0
  2 32  1  0
  2 33  1  0
  6 34  1  0
  6 35  1  0
  9 36  1  0
 10 37  1  0
 11 38  1  0
 14 39  1  0
 18 40  1  0
 20 41  1  0
 21 42  1  0
 22 43  1  0
 24 44  1  0
 25 45  1  0
 26 46  1  0
 27 47  1  0
M  END
$$$$
FCG17585042
     RDKit          3D

 39 42  0  0  0  0  0  0  0  0999 V2000
    2.1353    2.7684    0.5634 C   0  0  0  0  0  0  0  0  0  0  0  0
    1.0903    2.4400   -0.4037 N   0  0  0  0  0  0  0  0  0  0  0  0
   -0.2305    2.2652   -0.1861 C   0  0  0  0  0  0  0  0  0  0  0  0
   -0.9160    2.3933    1.1419 C   0  0  0  0  0  0  0  0  0  0  0  0
   -0.7161    1.1402    1.9510 C   0  0  0  0  0  0  0  0  0  0  0  0
    0.2197    1.1077    2.9991 C   0  0  0  0  0  0  0  0  0  0  0  0
    0.4241   -0.0702    3.7242 C   0  0  0  0  0  0  0  0  0  0  0  0
   -0.3011   -1.2223    3.4088 C   0  0  0  0  0  0  0  0  0  0  0  0
   -1.2317   -1.1990    2.3669 C   0  0  0  0  0  0  0  0  0  0  0  0
   -1.4381   -0.0244    1.6371 C   0  0  0  0  0  0  0  0  0  0  0  0
   -0.8538    1.8119   -1.2917 N   0  0  0  0  0  0  0  0  0  0  0  0
    0.0690    1.6845   -2.2335 N   0  0  0  0  0  0  0  0  0  0  0  0
    1.2418    2.0526   -1.6849 C   0  0  0  0  0  0  0  0  0  0  0  0
    2.8120    1.9251   -2.5493 S   0  0  0  0  0  0  0  0  0  0  0  0
    3.2469    0.2858   -1.8644 C   0  0  0  0  0  0  0  0  0  0  0  0
    2.2182   -0.7421   -2.2171 C   0  0  0  0  0  0  0  0  0  0  0  0
    2.1008   -1.1749   -3.5084 N   0  0  0  0  0  0  0  0  0  0  0  0
    1.1307   -2.0680   -3.8272 C   0  0  0  0  0  0  0  0  0  0  0  0
    0.9001   -2.5875   -5.1020 C   0  0  0  0  0  0  0  0  0  0  0  0
   -0.1678   -3.4856   -5.1211 C   0  0  0  0  0  0  0  0  0  0  0  0
   -0.8150   -3.6181   -3.5601 S   0  0  0  0  0  0  0  0  0  0  0  0
    0.2648   -2.5378   -2.8643 C   0  0  0  0  0  0  0  0  0  0  0  0
    0.3765   -2.0971   -1.5524 C   0  0  0  0  0  0  0  0  0  0  0  0
   -0.4073   -2.5061   -0.6569 O   0  0  0  0  0  0  0  0  0  0  0  0
    1.3573   -1.1997   -1.2550 N   0  0  0  0  0  2  0  0  0  0  0  0
    2.4310    1.8535    1.1172 H   0  0  0  0  0  0  0  0  0  0  0  0
    1.7715    3.5329    1.2803 H   0  0  0  0  0  0  0  0  0  0  0  0
    3.0249    3.1843    0.0461 H   0  0  0  0  0  0  0  0  0  0  0  0
   -0.5331    3.2845    1.6839 H   0  0  0  0  0  0  0  0  0  0  0  0
   -2.0028    2.5600    0.9800 H   0  0  0  0  0  0  0  0  0  0  0  0
    0.7918    1.9909    3.2531 H   0  0  0  0  0  0  0  0  0  0  0  0
    1.1460   -0.0889    4.5315 H   0  0  0  0  0  0  0  0  0  0  0  0
   -0.1419   -2.1329    3.9717 H   0  0  0  0  0  0  0  0  0  0  0  0
   -1.7907   -2.0927    2.1217 H   0  0  0  0  0  0  0  0  0  0  0  0
   -2.1540   -0.0229    0.8255 H   0  0  0  0  0  0  0  0  0  0  0  0
    3.3565    0.3602   -0.7624 H   0  0  0  0  0  0  0  0  0  0  0  0
    4.2273   -0.0226   -2.2825 H   0  0  0  0  0  0  0  0  0  0  0  0
    1.4802   -2.3250   -5.9773 H   0  0  0  0  0  0  0  0  0  0  0  0
   -0.5271   -4.0090   -5.9966 H   0  0  0  0  0  0  0  0  0  0  0  0
  1  2  1  0
  2  3  1  0
  3  4  1  0
  4  5  1  0
  5  6  2  0
  6  7  1  0
  7  8  2  0
  8  9  1  0
  9 10  2  0
  3 11  2  0
 11 12  1  0
 12 13  2  0
 13 14  1  0
 14 15  1  0
 15 16  1  0
 16 17  2  0
 17 18  1  0
 18 19  1  0
 19 20  2  0
 20 21  1  0
 21 22  1  0
 22 23  1  0
 23 24  2  0
 23 25  1  0
 13  2  1  0
 25 16  1  0
 10  5  1  0
 22 18  2  0
  1 26  1  0
  1 27  1  0
  1 28  1  0
  4 29  1  0
  4 30  1  0
  6 31  1  0
  7 32  1  0
  8 33  1  0
  9 34  1  0
 10 35  1  0
 15 36  1  0
 15 37  1  0
 19 38  1  0
 20 39  1  0
M  CHG  1  25  -1
M  END
$$$$
FCG17822054
     RDKit          3D

 37 39  0  0  0  0  0  0  0  0999 V2000
    5.6670    3.6279   -1.0394 N   0  0  0  0  0  0  0  0  0  0  0  0
    5.2473    2.5876   -0.8288 C   0  0  0  0  0  0  0  0  0  0  0  0
    4.7330    1.2448   -0.5562 C   0  0  0  0  0  0  0  0  0  0  0  0
    5.1837    0.4804    0.5003 C   0  0  0  0  0  0  0  0  0  0  0  0
    4.6979   -0.7795    0.7484 C   0  0  0  0  0  0  0  0  0  0  0  0
    3.7180   -1.3551   -0.0581 C   0  0  0  0  0  0  0  0  0  0  0  0
    3.2364   -2.7355    0.2221 C   0  0  0  0  0  0  0  0  0  0  0  0
    1.8354   -2.7116    1.3409 S   0  0  0  0  0  0  0  0  0  0  0  0
    0.4084   -1.9975    0.6029 C   0  0  0  0  0  0  0  0  0  0  0  0
   -0.4834   -2.6765   -0.1706 N   0  0  0  0  0  0  0  0  0  0  0  0
   -1.4200   -1.8536   -0.5566 N   0  0  0  0  0  0  0  0  0  0  0  0
   -1.1262   -0.6232   -0.0177 C   0  0  0  0  0  0  0  0  0  0  0  0
   -1.9437    0.5978   -0.2097 C   0  0  0  0  0  0  0  0  0  0  0  0
   -2.9971    0.6934    0.7723 N   0  0  0  0  0  0  0  0  0  0  0  0
   -3.9714   -0.3542    0.5887 C   0  0  0  0  0  0  0  0  0  0  0  0
   -4.9557    0.3295   -0.3823 C   0  0  0  0  0  0  0  0  0  0  0  0
   -5.1195    1.6517    0.3362 C   0  0  0  0  0  0  0  0  0  0  0  0
   -3.6837    1.9571    0.7091 C   0  0  0  0  0  0  0  0  0  0  0  0
   -0.0320   -0.7761    0.6566 O   0  0  0  0  0  0  0  0  0  0  0  0
    3.2612   -0.6033   -1.1120 C   0  0  0  0  0  0  0  0  0  0  0  0
    3.7642    0.6847   -1.3598 C   0  0  0  0  0  0  0  0  0  0  0  0
    5.9564    0.9400    1.1321 H   0  0  0  0  0  0  0  0  0  0  0  0
    5.0694   -1.3706    1.5872 H   0  0  0  0  0  0  0  0  0  0  0  0
    4.0910   -3.2473    0.7654 H   0  0  0  0  0  0  0  0  0  0  0  0
    3.0242   -3.2861   -0.7232 H   0  0  0  0  0  0  0  0  0  0  0  0
   -1.2727    1.4961   -0.1114 H   0  0  0  0  0  0  0  0  0  0  0  0
   -2.3597    0.5219   -1.2551 H   0  0  0  0  0  0  0  0  0  0  0  0
   -4.4723   -0.5387    1.5638 H   0  0  0  0  0  0  0  0  0  0  0  0
   -3.5821   -1.2545    0.1186 H   0  0  0  0  0  0  0  0  0  0  0  0
   -5.8736   -0.2531   -0.4847 H   0  0  0  0  0  0  0  0  0  0  0  0
   -4.3891    0.4185   -1.3382 H   0  0  0  0  0  0  0  0  0  0  0  0
   -5.5860    2.4386   -0.2789 H   0  0  0  0  0  0  0  0  0  0  0  0
   -5.7092    1.4227    1.2600 H   0  0  0  0  0  0  0  0  0  0  0  0
   -3.6148    2.4478    1.6966 H   0  0  0  0  0  0  0  0  0  0  0  0
   -3.2013    2.6241   -0.0373 H   0  0  0  0  0  0  0  0  0  0  0  0
    2.4993   -1.0188   -1.7499 H   0  0  0  0  0  0  0  0  0  0  0  0
    3.4005    1.2705   -2.2003 H   0  0  0  0  0  0  0  0  0  0  0  0
  1  2  3  0
  2  3  1  0
  3  4  2  0
  4  5  1  0
  5  6  2  0
  6  7  1  0
  7  8  1  0
  8  9  1  0
  9 10  2  0
 10 11  1  0
 11 12  2  0
 12 13  1  0
 13 14  1  0
 14 15  1  0
 15 16  1  0
 16 17  1  0
 17 18  1  0
 12 19  1  0
  6 20  1  0
 20 21  2  0
 21  3  1  0
 19  9  1  0
 18 14  1  0
  4 22  1  0
  5 23  1  0
  7 24  1  0
  7 25  1  0
 13 26  1  0
 13 27  1  0
 15 28  1  0
 15 29  1  0
 16 30  1  0
 16 31  1  0
 17 32  1  0
 17 33  1  0
 18 34  1  0
 18 35  1  0
 20 36  1  0
 21 37  1  0
M  END
$$$$
FCG18066182
     RDKit          3D

 34 35  0  0  0  0  0  0  0  0999 V2000
   -0.3134   -1.6221   -2.1752 C   0  0  0  0  0  0  0  0  0  0  0  0
    1.0119   -1.2018   -2.7242 C   0  0  0  0  0  0  0  0  0  0  0  0
    1.2951   -1.1765   -4.0416 N   0  0  0  0  0  0  0  0  0  0  0  0
    2.5123   -0.7306   -4.1637 O   0  0  0  0  0  0  0  0  0  0  0  0
    3.0393   -0.4583   -2.9924 C   0  0  0  0  0  0  0  0  0  0  0  0
    4.4175    0.0833   -2.7988 C   0  0  0  0  0  0  0  0  0  0  0  0
    2.1018   -0.7288   -2.0125 C   0  0  0  0  0  0  0  0  0  0  0  0
    2.2510   -0.5654   -0.5263 C   0  0  0  0  0  0  0  0  0  0  0  0
    2.5037    1.1904   -0.0774 S   0  0  0  0  0  0  0  0  0  0  0  0
    0.7685    1.7253   -0.2787 C   0  0  0  0  0  0  0  0  0  0  0  0
   -0.0639    1.2371    0.8622 C   0  0  0  0  0  0  0  0  0  0  0  0
    0.1121    1.7189    2.0134 O   0  0  0  0  0  0  0  0  0  0  0  0
   -1.0750    0.2506    0.6263 N   0  0  0  0  0  2  0  0  0  0  0  0
   -1.7077   -0.5776    1.6116 C   0  0  0  0  0  0  0  0  0  0  0  0
   -1.0919   -0.8786    2.8412 C   0  0  0  0  0  0  0  0  0  0  0  0
   -1.7321   -1.7154    3.7612 C   0  0  0  0  0  0  0  0  0  0  0  0
   -2.9792   -2.2677    3.4576 C   0  0  0  0  0  0  0  0  0  0  0  0
   -3.5841   -1.9921    2.2287 C   0  0  0  0  0  0  0  0  0  0  0  0
   -2.9466   -1.1566    1.3063 C   0  0  0  0  0  0  0  0  0  0  0  0
   -0.9196   -0.7245   -1.9388 H   0  0  0  0  0  0  0  0  0  0  0  0
   -0.1779   -2.2344   -1.2598 H   0  0  0  0  0  0  0  0  0  0  0  0
   -0.8575   -2.2318   -2.9266 H   0  0  0  0  0  0  0  0  0  0  0  0
    4.3637    1.1735   -2.5993 H   0  0  0  0  0  0  0  0  0  0  0  0
    4.9111   -0.4252   -1.9446 H   0  0  0  0  0  0  0  0  0  0  0  0
    5.0213   -0.0876   -3.7144 H   0  0  0  0  0  0  0  0  0  0  0  0
    1.3769   -0.9798    0.0144 H   0  0  0  0  0  0  0  0  0  0  0  0
    3.1412   -1.1392   -0.1956 H   0  0  0  0  0  0  0  0  0  0  0  0
    0.7425    2.8349   -0.2945 H   0  0  0  0  0  0  0  0  0  0  0  0
    0.3610    1.3656   -1.2462 H   0  0  0  0  0  0  0  0  0  0  0  0
   -0.1100   -0.4974    3.0834 H   0  0  0  0  0  0  0  0  0  0  0  0
   -1.2560   -1.9441    4.7061 H   0  0  0  0  0  0  0  0  0  0  0  0
   -3.4719   -2.9166    4.1701 H   0  0  0  0  0  0  0  0  0  0  0  0
   -4.5452   -2.4283    1.9892 H   0  0  0  0  0  0  0  0  0  0  0  0
   -3.4202   -0.9538    0.3537 H   0  0  0  0  0  0  0  0  0  0  0  0
  1  2  1  0
  2  3  2  0
  3  4  1  0
  4  5  1  0
  5  6  1  0
  5  7  2  0
  7  8  1  0
  8  9  1  0
  9 10  1  0
 10 11  1  0
 11 12  2  0
 11 13  1  0
 13 14  1  0
 14 15  2  0
 15 16  1  0
 16 17  2  0
 17 18  1  0
 18 19  2  0
  7  2  1  0
 19 14  1  0
  1 20  1  0
  1 21  1  0
  1 22  1  0
  6 23  1  0
  6 24  1  0
  6 25  1  0
  8 26  1  0
  8 27  1  0
 10 28  1  0
 10 29  1  0
 15 30  1  0
 16 31  1  0
 17 32  1  0
 18 33  1  0
 19 34  1  0
M  CHG  1  13  -1
M  END
$$$$
FCG18472628
     RDKit          3D

 46 48  0  0  0  0  0  0  0  0999 V2000
   -5.8622   -0.4290    0.7358 C   0  0  0  0  0  0  0  0  0  0  0  0
   -4.6699    0.4343    0.4015 C   0  0  2  0  0  0  0  0  0  0  0  0
   -4.8736    1.2051   -0.8834 C   0  0  0  0  0  0  0  0  0  0  0  0
   -3.7078    2.1517   -1.0256 C   0  0  0  0  0  0  0  0  0  0  0  0
   -2.6303    1.9118   -0.0224 C   0  0  0  0  0  0  0  0  0  0  0  0
   -2.2492    0.4566    0.1226 C   0  0  2  0  0  0  0  0  0  0  0  0
   -1.3484    0.0433   -0.9268 N   0  0  0  0  0  0  0  0  0  0  0  0
   -0.0354   -0.3818   -0.5821 C   0  0  0  0  0  0  0  0  0  0  0  0
    0.3502   -0.4018    0.6268 O   0  0  0  0  0  0  0  0  0  0  0  0
    0.8753   -0.8036   -1.6825 C   0  0  0  0  0  0  0  0  0  0  0  0
    2.1354   -1.1869   -1.0863 N   0  0  0  0  0  0  0  0  0  0  0  0
    2.5265   -2.3732   -0.6522 N   0  0  0  0  0  0  0  0  0  0  0  0
    3.7589   -2.2829   -0.1762 N   0  0  0  0  0  0  0  0  0  0  0  0
    4.1791   -1.0116   -0.3028 C   0  0  0  0  0  0  0  0  0  0  0  0
    5.4787   -0.4818    0.0979 C   0  0  0  0  0  0  0  0  0  0  0  0
    5.7846    0.8502   -0.0889 C   0  0  0  0  0  0  0  0  0  0  0  0
    7.0067    1.3784    0.2809 C   0  0  0  0  0  0  0  0  0  0  0  0
    7.9683    0.5860    0.8532 C   0  0  0  0  0  0  0  0  0  0  0  0
    7.6869   -0.7478    1.0503 C   0  0  0  0  0  0  0  0  0  0  0  0
    6.4477   -1.2755    0.6735 C   0  0  0  0  0  0  0  0  0  0  0  0
    6.0317   -3.1154    0.9342 Br  0  0  0  0  0  0  0  0  0  0  0  0
    3.1468   -0.3669   -0.8693 N   0  0  0  0  0  0  0  0  0  0  0  0
   -3.4570   -0.4506    0.2051 C   0  0  1  0  0  0  0  0  0  0  0  0
   -3.3244   -1.4595    1.3234 C   0  0  0  0  0  0  0  0  0  0  0  0
   -5.7164   -1.4577    0.3232 H   0  0  0  0  0  0  0  0  0  0  0  0
   -5.9019   -0.5288    1.8398 H   0  0  0  0  0  0  0  0  0  0  0  0
   -6.8184   -0.0019    0.4125 H   0  0  0  0  0  0  0  0  0  0  0  0
   -4.4293    1.1560    1.1991 H   0  0  0  0  0  0  0  0  0  0  0  0
   -4.8064    0.4538   -1.7145 H   0  0  0  0  0  0  0  0  0  0  0  0
   -5.8527    1.6958   -0.9504 H   0  0  0  0  0  0  0  0  0  0  0  0
   -3.3111    2.1951   -2.0616 H   0  0  0  0  0  0  0  0  0  0  0  0
   -4.1154    3.1860   -0.8242 H   0  0  0  0  0  0  0  0  0  0  0  0
   -1.7043    2.4292   -0.4100 H   0  0  0  0  0  0  0  0  0  0  0  0
   -2.8162    2.3823    0.9678 H   0  0  0  0  0  0  0  0  0  0  0  0
   -1.7204    0.3642    1.0894 H   0  0  0  0  0  0  0  0  0  0  0  0
   -1.6340    0.0464   -1.9466 H   0  0  0  0  0  0  0  0  0  0  0  0
    1.0602    0.0926   -2.3047 H   0  0  0  0  0  0  0  0  0  0  0  0
    0.4457   -1.6430   -2.2692 H   0  0  0  0  0  0  0  0  0  0  0  0
    5.0408    1.4836   -0.5363 H   0  0  0  0  0  0  0  0  0  0  0  0
    7.2363    2.4235    0.1301 H   0  0  0  0  0  0  0  0  0  0  0  0
    8.9441    0.9662    1.1581 H   0  0  0  0  0  0  0  0  0  0  0  0
    8.4152   -1.4037    1.4967 H   0  0  0  0  0  0  0  0  0  0  0  0
   -3.5564   -0.9672   -0.7579 H   0  0  0  0  0  0  0  0  0  0  0  0
   -4.0179   -2.2957    1.0973 H   0  0  0  0  0  0  0  0  0  0  0  0
   -2.3038   -1.8538    1.3819 H   0  0  0  0  0  0  0  0  0  0  0  0
   -3.6561   -0.9721    2.2713 H   0  0  0  0  0  0  0  0  0  0  0  0
  1  2  1  0
  2  3  1  0
  3  4  1  0
  4  5  1  0
  5  6  1  0
  6  7  1  0
  7  8  1  0
  8  9  2  0
  8 10  1  0
 10 11  1  0
 11 12  1  0
 12 13  2  0
 13 14  1  0
 14 15  1  0
 15 16  2  0
 16 17  1  0
 17 18  2  0
 18 19  1  0
 19 20  2  0
 20 21  1  0
 14 22  2  0
  6 23  1  0
 23 24  1  0
 23  2  1  0
 22 11  1  0
 20 15  1  0
  1 25  1  0
  1 26  1  0
  1 27  1  0
  2 28  1  1
  3 29  1  0
  3 30  1  0
  4 31  1  0
  4 32  1  0
  5 33  1  0
  5 34  1  0
  6 35  1  1
  7 36  1  0
 10 37  1  0
 10 38  1  0
 16 39  1  0
 17 40  1  0
 18 41  1  0
 19 42  1  0
 23 43  1  6
 24 44  1  0
 24 45  1  0
 24 46  1  0
M  END
$$$$
