FCG17585042_GNINA_10
     RDKit          3D

 25 28  0  0  0  0  0  0  0  0999 V2000
   18.5635    0.2296   18.8258 C   0  0  0  0  0  0  0  0  0  0  0  0
   18.1587   -0.4216   17.5820 N   0  0  0  0  0  0  0  0  0  0  0  0
   18.9048   -0.6822   16.4880 C   0  0  0  0  0  0  0  0  0  0  0  0
   18.2197   -1.4204   15.5923 N   0  0  0  0  0  0  0  0  0  0  0  0
   17.0197   -1.6429   16.1079 N   0  0  0  0  0  0  0  0  0  0  0  0
   16.9941   -1.0426   17.3123 C   0  0  0  0  0  0  0  0  0  0  0  0
   20.3449   -0.3013   16.3067 C   0  0  0  0  0  0  0  0  0  0  0  0
   21.1861   -0.8851   17.4091 C   0  0  0  0  0  0  0  0  0  0  0  0
   21.3089   -2.2776   17.5541 C   0  0  0  0  0  0  0  0  0  0  0  0
   22.1105   -2.8122   18.5674 C   0  0  0  0  0  0  0  0  0  0  0  0
   22.7952   -1.9632   19.4410 C   0  0  0  0  0  0  0  0  0  0  0  0
   22.6802   -0.5774   19.3023 C   0  0  0  0  0  0  0  0  0  0  0  0
   21.8801   -0.0383   18.2901 C   0  0  0  0  0  0  0  0  0  0  0  0
   15.5772   -1.1034   18.4146 S   0  0  0  0  0  0  0  0  0  0  0  0
   15.6843    0.6549   18.8935 C   0  0  0  0  0  0  0  0  0  0  0  0
   15.2520    1.5353   17.7650 C   0  0  0  0  0  0  0  0  0  0  0  0
   13.9204    1.7398   17.5334 N   0  0  0  0  0  0  0  0  0  0  0  0
   13.5360    2.5717   16.5337 C   0  0  0  0  0  0  0  0  0  0  0  0
   12.2151    2.8692   16.1952 C   0  0  0  0  0  0  0  0  0  0  0  0
   12.1316    3.7619   15.1261 C   0  0  0  0  0  0  0  0  0  0  0  0
   13.6957    4.1712   14.6166 S   0  0  0  0  0  0  0  0  0  0  0  0
   14.4735    3.2129   15.7548 C   0  0  0  0  0  0  0  0  0  0  0  0
   15.8274    3.0123   15.9889 C   0  0  0  0  0  0  0  0  0  0  0  0
   16.7029    3.5894   15.2924 O   0  0  0  0  0  0  0  0  0  0  0  0
   16.1909    2.1739   16.9994 N   0  0  0  0  0  0  0  0  0  0  0  0
  1  2  1  0
  2  3  1  0
  3  7  1  0
  7  8  1  0
  8  9  2  0
  9 10  1  0
 10 11  2  0
 11 12  1  0
 12 13  2  0
  3  4  2  0
  4  5  1  0
  5  6  2  0
  6 14  1  0
 14 15  1  0
 15 16  1  0
 16 17  2  0
 17 18  1  0
 18 19  1  0
 19 20  2  0
 20 21  1  0
 21 22  1  0
 22 23  1  0
 23 24  2  0
 23 25  1  0
  6  2  1  0
 25 16  1  0
 13  8  1  0
 22 18  2  0
M  CHG  1  25  -1
M  END
$$$$
FCG16425532_GNINA_2
     RDKit          3D

 18 19  0  0  0  0  0  0  0  0999 V2000
   18.6057   -0.1983   15.3750 O   0  0  0  0  0  0  0  0  0  0  0  0
   18.3411   -0.3672   16.7384 C   0  0  0  0  0  0  0  0  0  0  0  0
   19.2732   -0.6730   17.5317 O   0  0  0  0  0  0  0  0  0  0  0  0
   15.9779   -2.3833   16.4644 C   0  0  0  0  0  0  0  0  0  0  0  0
   15.9562   -1.0857   17.1357 N   0  0  0  0  0  0  0  0  0  0  0  0
   14.8812   -0.5461   17.7442 C   0  0  0  0  0  0  0  0  0  0  0  0
   15.2031    0.6914   18.2620 C   0  0  0  0  0  0  0  0  0  0  0  0
   16.5301    0.9164   17.9556 C   0  0  0  0  0  0  0  0  0  0  0  0
   16.9701   -0.1971   17.2610 C   0  0  0  0  0  0  0  0  0  0  0  0
   19.7884   -0.6776   14.7389 C   0  0  0  0  0  0  0  0  0  0  0  0
   20.3991    0.4040   13.8798 C   0  0  0  0  0  0  0  0  0  0  0  0
   21.6320    0.1700   13.2455 C   0  0  0  0  0  0  0  0  0  0  0  0
   22.2267    1.1632   12.4634 C   0  0  0  0  0  0  0  0  0  0  0  0
   21.6008    2.4008   12.3081 C   0  0  0  0  0  0  0  0  0  0  0  0
   20.3782    2.6506   12.9355 C   0  0  0  0  0  0  0  0  0  0  0  0
   19.7717    1.6618   13.7231 C   0  0  0  0  0  0  0  0  0  0  0  0
   18.5099    1.9575   14.3586 C   0  0  0  0  0  0  0  0  0  0  0  0
   17.4984    2.1953   14.8681 N   0  0  0  0  0  0  0  0  0  0  0  0
  4  5  1  0
  5  6  1  0
  6  7  2  0
  7  8  1  0
  8  9  2  0
  9  2  1  0
  2  3  2  0
  2  1  1  0
  1 10  1  0
 10 11  1  0
 11 12  2  0
 12 13  1  0
 13 14  2  0
 14 15  1  0
 15 16  2  0
 16 17  1  0
 17 18  3  0
  9  5  1  0
 16 11  1  0
M  END
$$$$
FCG18066182_GNINA_7
     RDKit          3D

 19 20  0  0  0  0  0  0  0  0999 V2000
   15.3875   -4.7945   11.4921 C   0  0  0  0  0  0  0  0  0  0  0  0
   15.5755   -3.8056   10.3876 C   0  0  0  0  0  0  0  0  0  0  0  0
   16.7293   -3.6011    9.9236 O   0  0  0  0  0  0  0  0  0  0  0  0
   14.4362   -3.1265    9.8474 N   0  0  0  0  0  0  0  0  0  0  0  0
   14.0892   -1.7490   10.0449 C   0  0  0  0  0  0  0  0  0  0  0  0
   15.1050   -0.7856    9.9843 C   0  0  0  0  0  0  0  0  0  0  0  0
   14.8048    0.5707   10.1446 C   0  0  0  0  0  0  0  0  0  0  0  0
   13.4834    0.9751   10.3507 C   0  0  0  0  0  0  0  0  0  0  0  0
   12.4601    0.0243   10.3875 C   0  0  0  0  0  0  0  0  0  0  0  0
   12.7569   -1.3333   10.2283 C   0  0  0  0  0  0  0  0  0  0  0  0
   16.6054   -4.5044   12.8225 S   0  0  0  0  0  0  0  0  0  0  0  0
   15.6266   -3.2737   13.7584 C   0  0  0  0  0  0  0  0  0  0  0  0
   14.3780   -3.7530   16.6948 C   0  0  0  0  0  0  0  0  0  0  0  0
   15.7125   -3.1704   16.3570 C   0  0  0  0  0  0  0  0  0  0  0  0
   16.6136   -2.7924   17.2852 N   0  0  0  0  0  0  0  0  0  0  0  0
   17.6665   -2.3682   16.6472 O   0  0  0  0  0  0  0  0  0  0  0  0
   17.5020   -2.4538   15.3474 C   0  0  0  0  0  0  0  0  0  0  0  0
   18.5350   -2.0582   14.3440 C   0  0  0  0  0  0  0  0  0  0  0  0
   16.2515   -2.9869   15.0945 C   0  0  0  0  0  0  0  0  0  0  0  0
 13 14  1  0
 14 15  2  0
 15 16  1  0
 16 17  1  0
 17 18  1  0
 17 19  2  0
 19 12  1  0
 12 11  1  0
 11  1  1  0
  1  2  1  0
  2  3  2  0
  2  4  1  0
  4  5  1  0
  5  6  2  0
  6  7  1  0
  7  8  2  0
  8  9  1  0
  9 10  2  0
 19 14  1  0
 10  5  1  0
M  CHG  1   4  -1
M  END
$$$$
FCG17274676_GNINA_2
     RDKit          3D

 28 31  0  0  0  0  0  0  0  0999 V2000
   19.3726   -0.3913   18.0685 N   0  0  0  0  0  0  0  0  0  0  0  0
   18.9593   -0.0214   16.7349 C   0  0  0  0  0  0  0  0  0  0  0  0
   17.8535    0.5577   16.5556 O   0  0  0  0  0  0  0  0  0  0  0  0
   20.4652   -1.3067   18.2676 C   0  0  0  0  0  0  0  0  0  0  0  0
   20.1998   -2.6832   18.2815 C   0  0  0  0  0  0  0  0  0  0  0  0
   21.2226   -3.6019   18.5182 C   0  0  0  0  0  0  0  0  0  0  0  0
   22.5262   -3.1603   18.7444 C   0  0  0  0  0  0  0  0  0  0  0  0
   22.8203   -1.7893   18.7265 C   0  0  0  0  0  0  0  0  0  0  0  0
   24.1326   -1.3457   18.9534 C   0  0  0  0  0  0  0  0  0  0  0  0
   24.4276    0.0186   18.9288 C   0  0  0  0  0  0  0  0  0  0  0  0
   23.4199    0.9495   18.6751 C   0  0  0  0  0  0  0  0  0  0  0  0
   22.1082    0.5246   18.4518 C   0  0  0  0  0  0  0  0  0  0  0  0
   21.7875   -0.8471   18.4793 C   0  0  0  0  0  0  0  0  0  0  0  0
   17.5590   -0.6948   19.7056 C   0  0  0  0  0  0  0  0  0  0  0  0
   18.7110    0.1896   19.2436 C   0  0  0  0  0  0  0  0  0  0  0  0
   19.8160   -0.3277   15.5415 C   0  0  0  0  0  0  0  0  0  0  0  0
   19.4193   -1.5769   14.9850 O   0  0  0  0  0  0  0  0  0  0  0  0
   18.1512   -2.1538   15.1414 C   0  0  0  0  0  0  0  0  0  0  0  0
   17.6991   -3.0328   14.1531 C   0  0  0  0  0  0  0  0  0  0  0  0
   16.4380   -3.6206   14.2528 C   0  0  0  0  0  0  0  0  0  0  0  0
   15.6156   -3.3395   15.3458 C   0  0  0  0  0  0  0  0  0  0  0  0
   16.0499   -2.4632   16.3584 C   0  0  0  0  0  0  0  0  0  0  0  0
   17.3241   -1.8747   16.2466 C   0  0  0  0  0  0  0  0  0  0  0  0
   15.2150   -2.1622   17.4954 N   0  0  0  0  0  0  0  0  0  0  0  0
   14.6342   -0.9958   17.8367 C   0  0  0  0  0  0  0  0  0  0  0  0
   13.9375   -1.1506   18.9777 N   0  0  0  0  0  0  0  0  0  0  0  0
   14.1040   -2.4202   19.3209 N   0  0  0  0  0  0  0  0  0  0  0  0
   14.8715   -3.0306   18.4316 N   0  0  0  0  0  0  0  0  0  0  0  0
 14 15  1  0
 15  1  1  0
  1  2  1  0
  2  3  2  0
  2 16  1  0
 16 17  1  0
 17 18  1  0
 18 19  2  0
 19 20  1  0
 20 21  2  0
 21 22  1  0
 22 24  1  0
 24 25  1  0
 25 26  2  0
 26 27  1  0
 27 28  2  0
 22 23  2  0
  1  4  1  0
  4  5  2  0
  5  6  1  0
  6  7  2  0
  7  8  1  0
  8  9  2  0
  9 10  1  0
 10 11  2  0
 11 12  1  0
 12 13  2  0
 23 18  1  0
 13  4  1  0
 28 24  1  0
 13  8  1  0
M  END
$$$$
FCG16952409_GNINA_8
     RDKit          3D

 26 28  0  0  0  0  0  0  0  0999 V2000
   21.2274   -0.2296   18.9432 C   0  0  0  0  0  0  0  0  0  0  0  0
   21.4510   -1.3392   17.9909 C   0  0  0  0  0  0  0  0  0  0  0  0
   22.0326   -2.3754   18.3924 O   0  0  0  0  0  0  0  0  0  0  0  0
   20.2738   -0.6697   14.6841 C   0  0  0  0  0  0  0  0  0  0  0  0
   20.6269   -1.9779   14.5240 C   0  0  0  0  0  0  0  0  0  0  0  0
   21.1130   -2.3902   15.7481 C   0  0  0  0  0  0  0  0  0  0  0  0
   21.0272   -1.2888   16.6023 C   0  0  0  0  0  0  0  0  0  0  0  0
   20.5273   -0.3205   15.9096 O   0  0  0  0  0  0  0  0  0  0  0  0
   19.6940    0.1565   13.5720 C   0  0  0  0  0  0  0  0  0  0  0  0
   20.4236    1.4131   13.5615 N   0  0  0  0  0  0  0  0  0  0  0  0
   21.9384    2.7126   12.0726 C   0  0  0  0  0  0  0  0  0  0  0  0
   21.6277    1.4599   12.8120 C   0  0  0  0  0  0  0  0  0  0  0  0
   22.3589    0.4583   12.8103 O   0  0  0  0  0  0  0  0  0  0  0  0
   19.8744    0.0084   19.1839 O   0  0  0  0  0  0  0  0  0  0  0  0
   18.8430   -0.7323   18.6308 C   0  0  0  0  0  0  0  0  0  0  0  0
   18.9676   -1.9539   18.4790 O   0  0  0  0  0  0  0  0  0  0  0  0
   17.6434   -0.0268   18.2488 C   0  0  0  0  0  0  0  0  0  0  0  0
   16.4141    0.0420   18.7646 C   0  0  0  0  0  0  0  0  0  0  0  0
   15.4663    0.7959   18.1903 C   0  0  0  0  0  0  0  0  0  0  0  0
   15.8278    1.4914   17.0459 C   0  0  0  0  0  0  0  0  0  0  0  0
   17.4954    1.0583   16.8173 S   0  0  0  0  0  0  0  0  0  0  0  0
   15.1055    2.4089   16.1346 C   0  0  0  0  0  0  0  0  0  0  0  0
   13.8751    2.9422   16.8259 C   0  0  0  0  0  0  0  0  0  0  0  0
   14.1144    3.3755   18.2321 C   0  0  0  0  0  0  0  0  0  0  0  0
   13.8979    2.3061   19.2572 C   0  0  0  0  0  0  0  0  0  0  0  0
   14.0468    0.9197   18.7240 C   0  0  0  0  0  0  0  0  0  0  0  0
 11 12  1  0
 12 13  2  0
 12 10  1  0
 10  9  1  0
  9  4  1  0
  4  5  2  0
  5  6  1  0
  6  7  2  0
  7  2  1  0
  2  3  2  0
  2  1  1  0
  1 14  1  0
 14 15  1  0
 15 16  2  0
 15 17  1  0
 17 18  2  0
 18 19  1  0
 19 20  2  0
 20 21  1  0
 20 22  1  0
 22 23  1  0
 23 24  1  0
 24 25  1  0
 25 26  1  0
  7  8  1  0
  8  4  1  0
 21 17  1  0
 26 19  1  0
M  CHG  1  10  -1
M  END
$$$$
FCG17822054_GNINA_8
     RDKit          3D

 21 23  0  0  0  0  0  0  0  0999 V2000
   15.0748   -4.6879   17.5625 C   0  0  0  0  0  0  0  0  0  0  0  0
   14.9450   -5.6330   18.4939 N   0  0  0  0  0  0  0  0  0  0  0  0
   15.1857   -6.8380   17.9059 N   0  0  0  0  0  0  0  0  0  0  0  0
   15.4606   -6.5566   16.5881 C   0  0  0  0  0  0  0  0  0  0  0  0
   15.3909   -5.3036   16.4357 O   0  0  0  0  0  0  0  0  0  0  0  0
   14.8864   -2.9149   17.6052 S   0  0  0  0  0  0  0  0  0  0  0  0
   16.2810   -2.1836   18.5680 C   0  0  0  0  0  0  0  0  0  0  0  0
   19.3021   -0.9062   15.7030 C   0  0  0  0  0  0  0  0  0  0  0  0
   19.3092   -0.5829   17.1211 C   0  0  0  0  0  0  0  0  0  0  0  0
   18.3787   -1.0075   17.9325 C   0  0  0  0  0  0  0  0  0  0  0  0
   17.2761   -1.8135   17.5620 C   0  0  0  0  0  0  0  0  0  0  0  0
   17.2574   -2.1399   16.2130 C   0  0  0  0  0  0  0  0  0  0  0  0
   18.1784   -1.7315   15.3456 C   0  0  0  0  0  0  0  0  0  0  0  0
   20.9758    0.1919   14.0132 N   0  0  0  0  0  0  0  0  0  0  0  0
   20.0888   -0.4037   14.9166 C   0  0  0  0  0  0  0  0  0  0  0  0
   15.7872   -7.6147   15.5543 C   0  0  0  0  0  0  0  0  0  0  0  0
   16.9489   -7.4439   14.8356 N   0  0  0  0  0  0  0  0  0  0  0  0
   17.6784   -8.6042   14.4943 C   0  0  0  0  0  0  0  0  0  0  0  0
   18.7005   -8.1239   13.4538 C   0  0  0  0  0  0  0  0  0  0  0  0
   17.8473   -7.0576   12.7531 C   0  0  0  0  0  0  0  0  0  0  0  0
   17.2635   -6.3843   14.0060 C   0  0  0  0  0  0  0  0  0  0  0  0
 14 15  3  0
 15  8  1  0
  8  9  2  0
  9 10  1  0
 10 11  2  0
 11  7  1  0
  7  6  1  0
  6  1  1  0
  1  2  2  0
  2  3  1  0
  3  4  2  0
  4 16  1  0
 16 17  1  0
 17 18  1  0
 18 19  1  0
 19 20  1  0
 20 21  1  0
  4  5  1  0
 11 12  1  0
 12 13  2  0
 13  8  1  0
  5  1  1  0
 21 17  1  0
M  END
$$$$
FCG18472628_PLANTS_6
     RDKit          3D

 24 26  0  0  1  0  0  0  0  0999 V2000
   13.9268    3.9658   19.0326 C   0  0  0  0  0  0  0  0  0  0  0  0
   14.2289    3.5404   17.5925 C   0  0  1  0  0  0  0  0  0  0  0  0
   15.3829    4.3355   17.1257 C   0  0  0  0  0  0  0  0  0  0  0  0
   16.3018    3.6595   16.1763 C   0  0  0  0  0  0  0  0  0  0  0  0
   15.4918    2.6116   15.4094 C   0  0  0  0  0  0  0  0  0  0  0  0
   15.2013    1.5258   16.4488 C   0  0  1  0  0  0  0  0  0  0  0  0
   16.4949    1.0660   16.9271 N   0  0  0  0  0  0  0  0  0  0  0  0
   16.8036   -0.2847   17.1692 C   0  0  0  0  0  0  0  0  0  0  0  0
   16.9179   -0.7790   18.3200 O   0  0  0  0  0  0  0  0  0  0  0  0
   17.0115   -1.2024   16.0076 C   0  0  0  0  0  0  0  0  0  0  0  0
   16.3049   -2.4537   16.1858 N   0  0  0  0  0  0  0  0  0  0  0  0
   15.8299   -3.1892   15.2007 N   0  0  0  0  0  0  0  0  0  0  0  0
   15.2363   -4.2715   15.6774 N   0  0  0  0  0  0  0  0  0  0  0  0
   15.3332   -4.2300   17.0148 C   0  0  0  0  0  0  0  0  0  0  0  0
   14.7996   -5.2471   17.9050 C   0  0  0  0  0  0  0  0  0  0  0  0
   14.0944   -6.3216   17.4140 C   0  0  0  0  0  0  0  0  0  0  0  0
   13.5998   -7.2717   18.2849 C   0  0  0  0  0  0  0  0  0  0  0  0
   13.7936   -7.1757   19.6525 C   0  0  0  0  0  0  0  0  0  0  0  0
   14.4997   -6.1004   20.1496 C   0  0  0  0  0  0  0  0  0  0  0  0
   14.9915   -5.1557   19.2831 C   0  0  0  0  0  0  0  0  0  0  0  0
   15.9594   -3.6914   20.0238 Br  0  0  0  0  0  0  0  0  0  0  0  0
   15.9960   -3.0996   17.3011 N   0  0  0  0  0  0  0  0  0  0  0  0
   14.3963    2.0654   17.5873 C   0  0  1  0  0  0  0  0  0  0  0  0
   14.9210    1.5230   18.9199 C   0  0  0  0  0  0  0  0  0  0  0  0
  2  1  1  1
  2  3  1  0
  3  4  1  0
  4  5  1  0
  5  6  1  0
  6  7  1  1
  6 23  1  0
  7  8  1  0
  8  9  2  0
  8 10  1  0
 10 11  1  0
 11 12  1  0
 12 13  2  0
 13 14  1  0
 14 15  1  0
 14 22  2  0
 15 16  2  0
 16 17  1  0
 17 18  2  0
 18 19  1  0
 19 20  2  0
 20 21  1  0
 20 15  1  0
 22 11  1  0
 23 24  1  1
 23  2  1  0
M  END
$$$$
FCG16600623_QVINAW_7
     RDKit          3D

 24 27  0  0  0  0  0  0  0  0999 V2000
   11.9570    4.9870   16.7500 C   0  0  0  0  0  0  0  0  0  0  0  0
   12.6360    3.6310   16.5130 C   0  0  2  0  0  0  0  0  0  0  0  0
   13.9680    3.7750   16.8910 O   0  0  0  0  0  0  0  0  0  0  0  0
   14.5560    3.1960   17.9810 C   0  0  0  0  0  0  0  0  0  0  0  0
   14.6150    3.8080   19.0570 O   0  0  0  0  0  0  0  0  0  0  0  0
   15.1340    1.8390   17.9070 C   0  0  0  0  0  0  0  0  0  0  0  0
   16.3470    1.5110   17.2810 C   0  0  0  0  0  0  0  0  0  0  0  0
   16.7090    0.2150   17.3180 C   0  0  0  0  0  0  0  0  0  0  0  0
   15.8860   -0.6850   17.9530 C   0  0  0  0  0  0  0  0  0  0  0  0
   14.5760    0.3690   18.4990 S   0  0  0  0  0  0  0  0  0  0  0  0
   16.4120   -2.0620   17.9130 C   0  0  0  0  0  0  0  0  0  0  0  0
   17.8810   -1.7880   17.6710 C   0  0  0  0  0  0  0  0  0  0  0  0
   17.9030   -0.5930   16.7840 C   0  0  0  0  0  0  0  0  0  0  0  0
   12.4560    3.3240   15.0790 C   0  0  0  0  0  0  0  0  0  0  0  0
   11.2750    2.8880   14.6100 N   0  0  0  0  0  0  0  0  0  0  0  0
   11.0620    2.5950   13.3100 C   0  0  0  0  0  0  0  0  0  0  0  0
    9.8450    2.1480   12.8400 C   0  0  0  0  0  0  0  0  0  0  0  0
    9.6040    1.8420   11.5140 C   0  0  0  0  0  0  0  0  0  0  0  0
   10.6520    2.0010   10.6380 C   0  0  0  0  0  0  0  0  0  0  0  0
   11.8850    2.4440   11.0590 C   0  0  0  0  0  0  0  0  0  0  0  0
   12.0960    2.7460   12.4110 C   0  0  0  0  0  0  0  0  0  0  0  0
   13.3040    3.1910   12.8830 C   0  0  0  0  0  0  0  0  0  0  0  0
   14.2360    3.3210   12.0410 O   0  0  0  0  0  0  0  0  0  0  0  0
   13.4630    3.4680   14.1890 N   0  0  0  0  0  2  0  0  0  0  0  0
  2  1  1  6
  2  3  1  0
  3  4  1  0
  4  5  2  0
  4  6  1  0
  6  7  2  0
  7  8  1  0
  8  9  2  0
  9 10  1  0
  9 11  1  0
 11 12  1  0
 12 13  1  0
  2 14  1  0
 14 15  2  0
 15 16  1  0
 16 17  2  0
 17 18  1  0
 18 19  2  0
 19 20  1  0
 20 21  2  0
 21 22  1  0
 22 23  2  0
 22 24  1  0
 10  6  1  0
 24 14  1  0
 13  8  1  0
 21 16  1  0
M  CHG  1  24  -1
M  END
$$$$
FCG1390566_QVINA2_8
     RDKit          3D

 14 15  0  0  0  0  0  0  0  0999 V2000
   11.5650    8.0040    3.9580 C   0  0  0  0  0  0  0  0  0  0  0  0
   10.5580    9.0450    4.1800 N   0  0  0  0  0  0  0  0  0  0  0  0
    9.7310    9.5340    3.0740 C   0  0  0  0  0  0  0  0  0  0  0  0
   10.3740    9.5990    5.4960 C   0  0  0  0  0  0  0  0  0  0  0  0
   11.1530    9.2740    6.5520 N   0  0  0  0  0  0  0  0  0  0  0  0
   10.7740    9.9330    7.6810 C   0  0  0  0  0  0  0  0  0  0  0  0
   11.5170    9.7740    8.9700 C   0  0  0  0  0  0  0  0  0  0  0  0
   12.7720   10.5840    8.9390 C   0  0  0  0  0  0  0  0  0  0  0  0
   13.9300   10.1650    8.4020 N   0  0  0  0  0  0  0  0  0  0  0  0
   14.7840   11.1480    8.6430 N   0  0  0  0  0  0  0  0  0  0  0  0
   14.1740   12.1170    9.3070 N   0  0  0  0  0  0  0  0  0  0  0  0
   12.9090   11.7920    9.5150 N   0  0  0  0  0  2  0  0  0  0  0  0
    9.6980   10.8040    7.5270 C   0  0  0  0  0  0  0  0  0  0  0  0
    9.1970   10.7260    5.9230 S   0  0  0  0  0  0  0  0  0  0  0  0
  1  2  1  0
  2  3  1  0
  2  4  1  0
  4  5  2  0
  5  6  1  0
  6  7  1  0
  7  8  1  0
  8  9  2  0
  9 10  1  0
 10 11  2  0
 11 12  1  0
  6 13  2  0
 13 14  1  0
 14  4  1  0
 12  8  1  0
M  CHG  1  12  -1
M  END
$$$$
FCG16141527_QVINA2_8
     RDKit          3D

 23 26  0  0  0  0  0  0  0  0999 V2000
   14.8960    8.1340   15.2030 C   0  0  0  0  0  0  0  0  0  0  0  0
   14.3240    6.7900   14.9000 C   0  0  0  0  0  0  0  0  0  0  0  0
   14.2700    5.8440   15.8720 N   0  0  0  0  0  0  0  0  0  0  0  0
   13.7030    4.6280   15.6550 C   0  0  0  0  0  0  0  0  0  0  0  0
   13.6470    3.4660   17.0280 S   0  0  0  0  0  0  0  0  0  0  0  0
   15.4480    3.1540   17.0470 C   0  0  0  0  0  0  0  0  0  0  0  0
   15.7360    1.6830   17.1190 C   0  0  0  0  0  0  0  0  0  0  0  0
   16.8480    1.1340   16.4500 C   0  0  0  0  0  0  0  0  0  0  0  0
   17.0440   -0.2510   16.4850 C   0  0  0  0  0  0  0  0  0  0  0  0
   18.0260   -0.7680   15.8850 O   0  0  0  0  0  0  0  0  0  0  0  0
   16.1560   -1.0240   17.1700 N   0  0  0  0  0  0  0  0  0  0  0  0
   16.1880   -2.3780   17.3050 C   0  0  0  0  0  0  0  0  0  0  0  0
   15.1380   -2.8990   18.0610 C   0  0  0  0  0  0  0  0  0  0  0  0
   14.1490   -1.6210   18.5680 S   0  0  0  0  0  0  0  0  0  0  0  0
   15.1010   -0.4710   17.8060 C   0  0  0  0  0  0  0  0  0  0  0  0
   14.8740    0.8650   17.7880 N   0  0  0  0  0  0  0  0  0  0  0  0
   13.1590    4.3330   14.3900 C   0  0  0  0  0  0  0  0  0  0  0  0
   12.5590    3.0970   14.0830 C   0  0  0  0  0  0  0  0  0  0  0  0
   12.0270    2.8720   12.8100 C   0  0  0  0  0  0  0  0  0  0  0  0
   12.0860    3.8710   11.8350 C   0  0  0  0  0  0  0  0  0  0  0  0
   12.6780    5.1020   12.1270 C   0  0  0  0  0  0  0  0  0  0  0  0
   13.2160    5.3380   13.3970 C   0  0  0  0  0  0  0  0  0  0  0  0
   13.7860    6.5380   13.6780 N   0  0  0  0  0  0  0  0  0  0  0  0
  1  2  1  0
  2  3  2  0
  3  4  1  0
  4  5  1  0
  5  6  1  0
  6  7  1  0
  7  8  2  0
  8  9  1  0
  9 10  2  0
  9 11  1  0
 11 12  1  0
 12 13  2  0
 13 14  1  0
 14 15  1  0
 15 16  2  0
  4 17  2  0
 17 18  1  0
 18 19  2  0
 19 20  1  0
 20 21  2  0
 21 22  1  0
 22 23  2  0
 23  2  1  0
 16  7  1  0
 22 17  1  0
 15 11  1  0
M  END
$$$$
