FCG18066182_QVINA2_10
     RDKit          3D

 19 20  0  0  0  0  0  0  0  0999 V2000
   15.7590    5.2340   16.4780 C   0  0  0  0  0  0  0  0  0  0  0  0
   14.6180    4.7680   15.6340 C   0  0  0  0  0  0  0  0  0  0  0  0
   14.3720    5.2300   14.3920 N   0  0  0  0  0  0  0  0  0  0  0  0
   13.3080    4.6180   13.9580 O   0  0  0  0  0  0  0  0  0  0  0  0
   12.8440    3.7790   14.8550 C   0  0  0  0  0  0  0  0  0  0  0  0
   11.6250    2.9370   14.6620 C   0  0  0  0  0  0  0  0  0  0  0  0
   13.6470    3.8430   15.9780 C   0  0  0  0  0  0  0  0  0  0  0  0
   13.5100    3.0650   17.2550 C   0  0  0  0  0  0  0  0  0  0  0  0
   14.7910    1.7640   17.3830 S   0  0  0  0  0  0  0  0  0  0  0  0
   13.9080    0.6710   18.5570 C   0  0  0  0  0  0  0  0  0  0  0  0
   14.3500   -0.7550   18.3880 C   0  0  0  0  0  0  0  0  0  0  0  0
   13.5210   -1.6190   17.9990 O   0  0  0  0  0  0  0  0  0  0  0  0
   15.7040   -1.1590   18.6270 N   0  0  0  0  0  2  0  0  0  0  0  0
   16.7600   -1.2130   17.6570 C   0  0  0  0  0  0  0  0  0  0  0  0
   16.6350   -1.9580   16.4700 C   0  0  0  0  0  0  0  0  0  0  0  0
   17.6710   -1.9610   15.5310 C   0  0  0  0  0  0  0  0  0  0  0  0
   18.8280   -1.2120   15.7600 C   0  0  0  0  0  0  0  0  0  0  0  0
   18.9470   -0.4490   16.9250 C   0  0  0  0  0  0  0  0  0  0  0  0
   17.9120   -0.4430   17.8660 C   0  0  0  0  0  0  0  0  0  0  0  0
  1  2  1  0
  2  3  2  0
  3  4  1  0
  4  5  1  0
  5  6  1  0
  5  7  2  0
  7  8  1  0
  8  9  1  0
  9 10  1  0
 10 11  1  0
 11 12  2  0
 11 13  1  0
 13 14  1  0
 14 15  2  0
 15 16  1  0
 16 17  2  0
 17 18  1  0
 18 19  2  0
  7  2  1  0
 19 14  1  0
M  CHG  1  13  -1
M  END
$$$$
FCG18066182_QVINA2_3
     RDKit          3D

 19 20  0  0  0  0  0  0  0  0999 V2000
   18.4700   -1.0720   17.5550 C   0  0  0  0  0  0  0  0  0  0  0  0
   17.2200   -0.4160   18.0430 C   0  0  0  0  0  0  0  0  0  0  0  0
   17.2020    0.7740   18.6760 N   0  0  0  0  0  0  0  0  0  0  0  0
   15.9590    1.0370   18.9630 O   0  0  0  0  0  0  0  0  0  0  0  0
   15.1630    0.0780   18.5490 C   0  0  0  0  0  0  0  0  0  0  0  0
   13.6820    0.0790   18.7410 C   0  0  0  0  0  0  0  0  0  0  0  0
   15.9290   -0.9070   17.9550 C   0  0  0  0  0  0  0  0  0  0  0  0
   15.4590   -2.1910   17.3330 C   0  0  0  0  0  0  0  0  0  0  0  0
   15.0380   -3.4340   18.6100 S   0  0  0  0  0  0  0  0  0  0  0  0
   14.4130   -4.7330   17.4830 C   0  0  0  0  0  0  0  0  0  0  0  0
   14.4860   -6.0830   18.1390 C   0  0  0  0  0  0  0  0  0  0  0  0
   15.5270   -6.4100   18.7680 O   0  0  0  0  0  0  0  0  0  0  0  0
   13.3880   -7.0040   18.0990 N   0  0  0  0  0  2  0  0  0  0  0  0
   12.2530   -7.0140   18.9770 C   0  0  0  0  0  0  0  0  0  0  0  0
   12.4020   -7.0710   20.3750 C   0  0  0  0  0  0  0  0  0  0  0  0
   11.2750   -7.0460   21.2020 C   0  0  0  0  0  0  0  0  0  0  0  0
    9.9970   -6.9460   20.6450 C   0  0  0  0  0  0  0  0  0  0  0  0
    9.8460   -6.8620   19.2590 C   0  0  0  0  0  0  0  0  0  0  0  0
   10.9710   -6.8860   18.4280 C   0  0  0  0  0  0  0  0  0  0  0  0
  1  2  1  0
  2  3  2  0
  3  4  1  0
  4  5  1  0
  5  6  1  0
  5  7  2  0
  7  8  1  0
  8  9  1  0
  9 10  1  0
 10 11  1  0
 11 12  2  0
 11 13  1  0
 13 14  1  0
 14 15  2  0
 15 16  1  0
 16 17  2  0
 17 18  1  0
 18 19  2  0
  7  2  1  0
 19 14  1  0
M  CHG  1  13  -1
M  END
$$$$
FCG18066182_QVINA2_4
     RDKit          3D

 19 20  0  0  0  0  0  0  0  0999 V2000
   13.6770    0.0800   18.7400 C   0  0  0  0  0  0  0  0  0  0  0  0
   15.1560    0.1690   18.5550 C   0  0  0  0  0  0  0  0  0  0  0  0
   15.9000    1.2060   18.9900 N   0  0  0  0  0  0  0  0  0  0  0  0
   17.1350    0.9590   18.6570 O   0  0  0  0  0  0  0  0  0  0  0  0
   17.2360   -0.1870   18.0240 C   0  0  0  0  0  0  0  0  0  0  0  0
   18.5190   -0.7440   17.5000 C   0  0  0  0  0  0  0  0  0  0  0  0
   15.9750   -0.7430   17.9120 C   0  0  0  0  0  0  0  0  0  0  0  0
   15.5960   -2.0470   17.2700 C   0  0  0  0  0  0  0  0  0  0  0  0
   15.3640   -3.3620   18.5210 S   0  0  0  0  0  0  0  0  0  0  0  0
   14.5550   -4.5900   17.4300 C   0  0  0  0  0  0  0  0  0  0  0  0
   14.5480   -5.9480   18.0750 C   0  0  0  0  0  0  0  0  0  0  0  0
   15.5370   -6.3110   18.7650 O   0  0  0  0  0  0  0  0  0  0  0  0
   13.4290   -6.8350   17.9560 N   0  0  0  0  0  2  0  0  0  0  0  0
   12.3120   -6.9210   18.8520 C   0  0  0  0  0  0  0  0  0  0  0  0
   12.4870   -7.0240   20.2430 C   0  0  0  0  0  0  0  0  0  0  0  0
   11.3750   -7.0710   21.0900 C   0  0  0  0  0  0  0  0  0  0  0  0
   10.0850   -7.0000   20.5580 C   0  0  0  0  0  0  0  0  0  0  0  0
    9.9050   -6.8700   19.1780 C   0  0  0  0  0  0  0  0  0  0  0  0
   11.0160   -6.8210   18.3290 C   0  0  0  0  0  0  0  0  0  0  0  0
  1  2  1  0
  2  3  2  0
  3  4  1  0
  4  5  1  0
  5  6  1  0
  5  7  2  0
  7  8  1  0
  8  9  1  0
  9 10  1  0
 10 11  1  0
 11 12  2  0
 11 13  1  0
 13 14  1  0
 14 15  2  0
 15 16  1  0
 16 17  2  0
 17 18  1  0
 18 19  2  0
  7  2  1  0
 19 14  1  0
M  CHG  1  13  -1
M  END
$$$$
FCG18066182_QVINA2_6
     RDKit          3D

 19 20  0  0  0  0  0  0  0  0999 V2000
   18.9920   -1.4980   14.7090 C   0  0  0  0  0  0  0  0  0  0  0  0
   19.0370   -1.0580   16.1360 C   0  0  0  0  0  0  0  0  0  0  0  0
   20.1700   -0.6900   16.7670 N   0  0  0  0  0  0  0  0  0  0  0  0
   19.8440   -0.3770   17.9890 O   0  0  0  0  0  0  0  0  0  0  0  0
   18.5550   -0.5230   18.1890 C   0  0  0  0  0  0  0  0  0  0  0  0
   17.8750   -0.2580   19.4920 C   0  0  0  0  0  0  0  0  0  0  0  0
   17.9750   -0.9810   17.0210 C   0  0  0  0  0  0  0  0  0  0  0  0
   16.5260   -1.2900   16.7700 C   0  0  0  0  0  0  0  0  0  0  0  0
   15.9400   -2.6500   17.8460 S   0  0  0  0  0  0  0  0  0  0  0  0
   15.1530   -3.6650   16.5410 C   0  0  0  0  0  0  0  0  0  0  0  0
   14.4830   -4.8690   17.1400 C   0  0  0  0  0  0  0  0  0  0  0  0
   15.0350   -5.9970   17.0440 O   0  0  0  0  0  0  0  0  0  0  0  0
   13.2420   -4.7680   17.8510 N   0  0  0  0  0  2  0  0  0  0  0  0
   12.4820   -5.8560   18.3950 C   0  0  0  0  0  0  0  0  0  0  0  0
   12.9540   -6.6140   19.4830 C   0  0  0  0  0  0  0  0  0  0  0  0
   12.1720   -7.6470   20.0110 C   0  0  0  0  0  0  0  0  0  0  0  0
   10.9120   -7.9190   19.4700 C   0  0  0  0  0  0  0  0  0  0  0  0
   10.4280   -7.1520   18.4070 C   0  0  0  0  0  0  0  0  0  0  0  0
   11.2070   -6.1180   17.8780 C   0  0  0  0  0  0  0  0  0  0  0  0
  1  2  1  0
  2  3  2  0
  3  4  1  0
  4  5  1  0
  5  6  1  0
  5  7  2  0
  7  8  1  0
  8  9  1  0
  9 10  1  0
 10 11  1  0
 11 12  2  0
 11 13  1  0
 13 14  1  0
 14 15  2  0
 15 16  1  0
 16 17  2  0
 17 18  1  0
 18 19  2  0
  7  2  1  0
 19 14  1  0
M  CHG  1  13  -1
M  END
$$$$
FCG18066182_QVINA2_7
     RDKit          3D

 19 20  0  0  0  0  0  0  0  0999 V2000
   14.2250   -1.3680   18.5050 C   0  0  0  0  0  0  0  0  0  0  0  0
   15.4490   -1.4430   17.6530 C   0  0  0  0  0  0  0  0  0  0  0  0
   15.7760   -2.5200   16.9110 N   0  0  0  0  0  0  0  0  0  0  0  0
   16.8970   -2.2450   16.3070 O   0  0  0  0  0  0  0  0  0  0  0  0
   17.3210   -1.0420   16.6190 C   0  0  0  0  0  0  0  0  0  0  0  0
   18.5850   -0.4390   16.0990 C   0  0  0  0  0  0  0  0  0  0  0  0
   16.4270   -0.4740   17.5070 C   0  0  0  0  0  0  0  0  0  0  0  0
   16.4920    0.8890   18.1360 C   0  0  0  0  0  0  0  0  0  0  0  0
   15.9470    2.1880   16.9680 S   0  0  0  0  0  0  0  0  0  0  0  0
   14.1800    2.2140   17.4460 C   0  0  0  0  0  0  0  0  0  0  0  0
   13.5980    3.5850   17.2450 C   0  0  0  0  0  0  0  0  0  0  0  0
   13.1480    4.2180   18.2370 O   0  0  0  0  0  0  0  0  0  0  0  0
   13.5680    4.2130   15.9570 N   0  0  0  0  0  2  0  0  0  0  0  0
   13.1090    3.6230   14.7330 C   0  0  0  0  0  0  0  0  0  0  0  0
   11.8100    3.0960   14.6100 C   0  0  0  0  0  0  0  0  0  0  0  0
   11.3830    2.5590   13.3910 C   0  0  0  0  0  0  0  0  0  0  0  0
   12.2390    2.5580   12.2860 C   0  0  0  0  0  0  0  0  0  0  0  0
   13.5200    3.1050   12.3960 C   0  0  0  0  0  0  0  0  0  0  0  0
   13.9500    3.6440   13.6130 C   0  0  0  0  0  0  0  0  0  0  0  0
  1  2  1  0
  2  3  2  0
  3  4  1  0
  4  5  1  0
  5  6  1  0
  5  7  2  0
  7  8  1  0
  8  9  1  0
  9 10  1  0
 10 11  1  0
 11 12  2  0
 11 13  1  0
 13 14  1  0
 14 15  2  0
 15 16  1  0
 16 17  2  0
 17 18  1  0
 18 19  2  0
  7  2  1  0
 19 14  1  0
M  CHG  1  13  -1
M  END
$$$$
FCG18066182_QVINA2_5
     RDKit          3D

 19 20  0  0  0  0  0  0  0  0999 V2000
   17.2770    0.1860   18.7530 C   0  0  0  0  0  0  0  0  0  0  0  0
   17.4160   -0.6910   17.5520 C   0  0  0  0  0  0  0  0  0  0  0  0
   18.5460   -0.7790   16.8210 N   0  0  0  0  0  0  0  0  0  0  0  0
   18.3120   -1.6220   15.8560 O   0  0  0  0  0  0  0  0  0  0  0  0
   17.0870   -2.0890   15.9180 C   0  0  0  0  0  0  0  0  0  0  0  0
   16.5110   -3.0640   14.9440 C   0  0  0  0  0  0  0  0  0  0  0  0
   16.4460   -1.5060   16.9950 C   0  0  0  0  0  0  0  0  0  0  0  0
   15.0360   -1.7330   17.4630 C   0  0  0  0  0  0  0  0  0  0  0  0
   14.9680   -3.0100   18.7730 S   0  0  0  0  0  0  0  0  0  0  0  0
   14.5650   -4.4360   17.6980 C   0  0  0  0  0  0  0  0  0  0  0  0
   14.8910   -5.7290   18.3900 C   0  0  0  0  0  0  0  0  0  0  0  0
   15.9210   -5.8040   19.1100 O   0  0  0  0  0  0  0  0  0  0  0  0
   14.0430   -6.8790   18.2810 N   0  0  0  0  0  2  0  0  0  0  0  0
   12.9470   -7.2140   19.1440 C   0  0  0  0  0  0  0  0  0  0  0  0
   11.8660   -7.9950   18.6960 C   0  0  0  0  0  0  0  0  0  0  0  0
   10.8300   -8.3310   19.5740 C   0  0  0  0  0  0  0  0  0  0  0  0
   10.8730   -7.9050   20.9040 C   0  0  0  0  0  0  0  0  0  0  0  0
   11.9570   -7.1520   21.3620 C   0  0  0  0  0  0  0  0  0  0  0  0
   12.9950   -6.8150   20.4860 C   0  0  0  0  0  0  0  0  0  0  0  0
  1  2  1  0
  2  3  2  0
  3  4  1  0
  4  5  1  0
  5  6  1  0
  5  7  2  0
  7  8  1  0
  8  9  1  0
  9 10  1  0
 10 11  1  0
 11 12  2  0
 11 13  1  0
 13 14  1  0
 14 15  2  0
 15 16  1  0
 16 17  2  0
 17 18  1  0
 18 19  2  0
  7  2  1  0
 19 14  1  0
M  CHG  1  13  -1
M  END
$$$$
FCG18066182_QVINA2_2
     RDKit          3D

 19 20  0  0  0  0  0  0  0  0999 V2000
   14.3720   -6.4780   21.9250 C   0  0  0  0  0  0  0  0  0  0  0  0
   13.0910   -6.7360   21.2030 C   0  0  0  0  0  0  0  0  0  0  0  0
   11.9010   -6.8760   21.8220 N   0  0  0  0  0  0  0  0  0  0  0  0
   11.0110   -7.0940   20.8960 O   0  0  0  0  0  0  0  0  0  0  0  0
   11.5590   -7.1050   19.7030 C   0  0  0  0  0  0  0  0  0  0  0  0
   10.8030   -7.3440   18.4370 C   0  0  0  0  0  0  0  0  0  0  0  0
   12.9180   -6.8930   19.8380 C   0  0  0  0  0  0  0  0  0  0  0  0
   13.9520   -6.8200   18.7510 C   0  0  0  0  0  0  0  0  0  0  0  0
   13.7720   -5.2900   17.7620 S   0  0  0  0  0  0  0  0  0  0  0  0
   14.9110   -4.2390   18.7360 C   0  0  0  0  0  0  0  0  0  0  0  0
   14.6410   -2.7840   18.4750 C   0  0  0  0  0  0  0  0  0  0  0  0
   13.5510   -2.4410   17.9470 O   0  0  0  0  0  0  0  0  0  0  0  0
   15.5790   -1.7640   18.8410 N   0  0  0  0  0  2  0  0  0  0  0  0
   16.7590   -1.3910   18.1150 C   0  0  0  0  0  0  0  0  0  0  0  0
   17.8720   -0.8200   18.7580 C   0  0  0  0  0  0  0  0  0  0  0  0
   19.0190   -0.5000   18.0250 C   0  0  0  0  0  0  0  0  0  0  0  0
   19.0700   -0.7610   16.6530 C   0  0  0  0  0  0  0  0  0  0  0  0
   17.9770   -1.3530   16.0140 C   0  0  0  0  0  0  0  0  0  0  0  0
   16.8290   -1.6750   16.7450 C   0  0  0  0  0  0  0  0  0  0  0  0
  1  2  1  0
  2  3  2  0
  3  4  1  0
  4  5  1  0
  5  6  1  0
  5  7  2  0
  7  8  1  0
  8  9  1  0
  9 10  1  0
 10 11  1  0
 11 12  2  0
 11 13  1  0
 13 14  1  0
 14 15  2  0
 15 16  1  0
 16 17  2  0
 17 18  1  0
 18 19  2  0
  7  2  1  0
 19 14  1  0
M  CHG  1  13  -1
M  END
$$$$
FCG18066182_QVINA2_8
     RDKit          3D

 19 20  0  0  0  0  0  0  0  0999 V2000
   18.6250   -0.4580   16.1150 C   0  0  0  0  0  0  0  0  0  0  0  0
   17.3730   -1.1130   16.5990 C   0  0  0  0  0  0  0  0  0  0  0  0
   16.9460   -2.3160   16.1660 N   0  0  0  0  0  0  0  0  0  0  0  0
   15.8300   -2.5730   16.7870 O   0  0  0  0  0  0  0  0  0  0  0  0
   15.5050   -1.5980   17.6040 C   0  0  0  0  0  0  0  0  0  0  0  0
   14.2730   -1.5880   18.4480 C   0  0  0  0  0  0  0  0  0  0  0  0
   16.4650   -0.6070   17.5140 C   0  0  0  0  0  0  0  0  0  0  0  0
   16.5200    0.6950   18.2610 C   0  0  0  0  0  0  0  0  0  0  0  0
   15.9870    2.0910   17.2050 S   0  0  0  0  0  0  0  0  0  0  0  0
   14.2270    2.1140   17.7080 C   0  0  0  0  0  0  0  0  0  0  0  0
   13.7540    3.5250   17.9160 C   0  0  0  0  0  0  0  0  0  0  0  0
   13.8810    4.0600   19.0490 O   0  0  0  0  0  0  0  0  0  0  0  0
   13.1890    4.2970   16.8490 N   0  0  0  0  0  2  0  0  0  0  0  0
   13.0230    3.8760   15.4880 C   0  0  0  0  0  0  0  0  0  0  0  0
   14.0720    3.9660   14.5550 C   0  0  0  0  0  0  0  0  0  0  0  0
   13.8860    3.5150   13.2440 C   0  0  0  0  0  0  0  0  0  0  0  0
   12.6630    2.9580   12.8600 C   0  0  0  0  0  0  0  0  0  0  0  0
   11.6270    2.8420   13.7900 C   0  0  0  0  0  0  0  0  0  0  0  0
   11.8100    3.2910   15.1030 C   0  0  0  0  0  0  0  0  0  0  0  0
  1  2  1  0
  2  3  2  0
  3  4  1  0
  4  5  1  0
  5  6  1  0
  5  7  2  0
  7  8  1  0
  8  9  1  0
  9 10  1  0
 10 11  1  0
 11 12  2  0
 11 13  1  0
 13 14  1  0
 14 15  2  0
 15 16  1  0
 16 17  2  0
 17 18  1  0
 18 19  2  0
  7  2  1  0
 19 14  1  0
M  CHG  1  13  -1
M  END
$$$$
FCG18066182_QVINA2_9
     RDKit          3D

 19 20  0  0  0  0  0  0  0  0999 V2000
   12.4810    2.8400   12.8200 C   0  0  0  0  0  0  0  0  0  0  0  0
   13.0740    4.1450   13.2390 C   0  0  0  0  0  0  0  0  0  0  0  0
   13.3600    5.1440   12.3800 N   0  0  0  0  0  0  0  0  0  0  0  0
   13.8660    6.1190   13.0800 O   0  0  0  0  0  0  0  0  0  0  0  0
   13.9260    5.8080   14.3540 C   0  0  0  0  0  0  0  0  0  0  0  0
   14.4700    6.7110   15.4120 C   0  0  0  0  0  0  0  0  0  0  0  0
   13.4390    4.5250   14.5190 C   0  0  0  0  0  0  0  0  0  0  0  0
   13.3090    3.7450   15.7970 C   0  0  0  0  0  0  0  0  0  0  0  0
   14.8720    2.8900   16.2160 S   0  0  0  0  0  0  0  0  0  0  0  0
   14.1850    1.7250   17.4490 C   0  0  0  0  0  0  0  0  0  0  0  0
   15.2060    1.4080   18.5050 C   0  0  0  0  0  0  0  0  0  0  0  0
   15.4040    2.2260   19.4410 O   0  0  0  0  0  0  0  0  0  0  0  0
   15.9450    0.1790   18.4970 N   0  0  0  0  0  2  0  0  0  0  0  0
   17.2500   -0.0260   17.9370 C   0  0  0  0  0  0  0  0  0  0  0  0
   18.3720   -0.2660   18.7510 C   0  0  0  0  0  0  0  0  0  0  0  0
   19.6230   -0.4960   18.1710 C   0  0  0  0  0  0  0  0  0  0  0  0
   19.7610   -0.5040   16.7800 C   0  0  0  0  0  0  0  0  0  0  0  0
   18.6450   -0.2930   15.9670 C   0  0  0  0  0  0  0  0  0  0  0  0
   17.3910   -0.0640   16.5440 C   0  0  0  0  0  0  0  0  0  0  0  0
  1  2  1  0
  2  3  2  0
  3  4  1  0
  4  5  1  0
  5  6  1  0
  5  7  2  0
  7  8  1  0
  8  9  1  0
  9 10  1  0
 10 11  1  0
 11 12  2  0
 11 13  1  0
 13 14  1  0
 14 15  2  0
 15 16  1  0
 16 17  2  0
 17 18  1  0
 18 19  2  0
  7  2  1  0
 19 14  1  0
M  CHG  1  13  -1
M  END
$$$$
FCG18066182_QVINA2_1
     RDKit          3D

 19 20  0  0  0  0  0  0  0  0999 V2000
   10.8820   -7.3820   18.4570 C   0  0  0  0  0  0  0  0  0  0  0  0
   11.6350   -7.1320   19.7220 C   0  0  0  0  0  0  0  0  0  0  0  0
   11.0560   -7.0870   20.9380 N   0  0  0  0  0  0  0  0  0  0  0  0
   11.9990   -6.8450   21.8030 O   0  0  0  0  0  0  0  0  0  0  0  0
   13.1660   -6.7270   21.2140 C   0  0  0  0  0  0  0  0  0  0  0  0
   14.4420   -6.4350   21.9330 C   0  0  0  0  0  0  0  0  0  0  0  0
   12.9920   -6.8890   19.8520 C   0  0  0  0  0  0  0  0  0  0  0  0
   14.0400   -6.8410   18.7760 C   0  0  0  0  0  0  0  0  0  0  0  0
   13.8530   -5.3500   17.7310 S   0  0  0  0  0  0  0  0  0  0  0  0
   14.8860   -4.2220   18.7370 C   0  0  0  0  0  0  0  0  0  0  0  0
   14.5640   -2.7880   18.4210 C   0  0  0  0  0  0  0  0  0  0  0  0
   13.4730   -2.5070   17.8600 O   0  0  0  0  0  0  0  0  0  0  0  0
   15.4530   -1.7190   18.7710 N   0  0  0  0  0  2  0  0  0  0  0  0
   16.6900   -1.3930   18.1220 C   0  0  0  0  0  0  0  0  0  0  0  0
   16.8460   -1.5150   16.7290 C   0  0  0  0  0  0  0  0  0  0  0  0
   18.0560   -1.1560   16.1250 C   0  0  0  0  0  0  0  0  0  0  0  0
   19.1080   -0.6600   16.9000 C   0  0  0  0  0  0  0  0  0  0  0  0
   18.9480   -0.5130   18.2800 C   0  0  0  0  0  0  0  0  0  0  0  0
   17.7400   -0.8700   18.8880 C   0  0  0  0  0  0  0  0  0  0  0  0
  1  2  1  0
  2  3  2  0
  3  4  1  0
  4  5  1  0
  5  6  1  0
  5  7  2  0
  7  8  1  0
  8  9  1  0
  9 10  1  0
 10 11  1  0
 11 12  2  0
 11 13  1  0
 13 14  1  0
 14 15  2  0
 15 16  1  0
 16 17  2  0
 17 18  1  0
 18 19  2  0
  7  2  1  0
 19 14  1  0
M  CHG  1  13  -1
M  END
$$$$
