FCG17274676_QVINA2_1
     RDKit          3D

 28 31  0  0  0  0  0  0  0  0999 V2000
   13.8480    6.8940   15.1550 C   0  0  0  0  0  0  0  0  0  0  0  0
   14.8340    5.9650   15.8540 C   0  0  0  0  0  0  0  0  0  0  0  0
   14.1620    4.7400   16.3050 N   0  0  0  0  0  0  0  0  0  0  0  0
   14.7300    3.9390   17.3650 C   0  0  0  0  0  0  0  0  0  0  0  0
   14.5340    4.2550   18.5690 O   0  0  0  0  0  0  0  0  0  0  0  0
   15.5720    2.7340   17.0630 C   0  0  0  0  0  0  0  0  0  0  0  0
   15.8980    2.0690   18.2790 O   0  0  0  0  0  0  0  0  0  0  0  0
   16.2190    0.7090   18.3840 C   0  0  0  0  0  0  0  0  0  0  0  0
   17.5440    0.3630   18.6610 C   0  0  0  0  0  0  0  0  0  0  0  0
   17.9200   -0.9770   18.7590 C   0  0  0  0  0  0  0  0  0  0  0  0
   16.9720   -1.9880   18.5850 C   0  0  0  0  0  0  0  0  0  0  0  0
   15.6280   -1.6660   18.3120 C   0  0  0  0  0  0  0  0  0  0  0  0
   14.6350   -2.6960   18.1310 N   0  0  0  0  0  0  0  0  0  0  0  0
   14.7470   -4.0250   18.3180 C   0  0  0  0  0  0  0  0  0  0  0  0
   13.5770   -4.6250   18.0340 N   0  0  0  0  0  0  0  0  0  0  0  0
   12.7590   -3.6460   17.6740 N   0  0  0  0  0  0  0  0  0  0  0  0
   13.3920   -2.4850   17.7320 N   0  0  0  0  0  0  0  0  0  0  0  0
   15.2620   -0.3110   18.2150 C   0  0  0  0  0  0  0  0  0  0  0  0
   12.9100    4.3700   15.7000 C   0  0  0  0  0  0  0  0  0  0  0  0
   11.7200    4.6300   16.3940 C   0  0  0  0  0  0  0  0  0  0  0  0
   10.4880    4.2450   15.8650 C   0  0  0  0  0  0  0  0  0  0  0  0
   10.4260    3.5940   14.6330 C   0  0  0  0  0  0  0  0  0  0  0  0
   11.6000    3.3300   13.9130 C   0  0  0  0  0  0  0  0  0  0  0  0
   11.5360    2.6770   12.6720 C   0  0  0  0  0  0  0  0  0  0  0  0
   12.7040    2.4200   11.9520 C   0  0  0  0  0  0  0  0  0  0  0  0
   13.9420    2.8150   12.4590 C   0  0  0  0  0  0  0  0  0  0  0  0
   14.0230    3.4630   13.6940 C   0  0  0  0  0  0  0  0  0  0  0  0
   12.8570    3.7250   14.4410 C   0  0  0  0  0  0  0  0  0  0  0  0
  1  2  1  0
  2  3  1  0
  3  4  1  0
  4  5  2  0
  4  6  1  0
  6  7  1  0
  7  8  1  0
  8  9  2  0
  9 10  1  0
 10 11  2  0
 11 12  1  0
 12 13  1  0
 13 14  1  0
 14 15  2  0
 15 16  1  0
 16 17  2  0
 12 18  2  0
  3 19  1  0
 19 20  2  0
 20 21  1  0
 21 22  2  0
 22 23  1  0
 23 24  2  0
 24 25  1  0
 25 26  2  0
 26 27  1  0
 27 28  2  0
 18  8  1  0
 28 19  1  0
 17 13  1  0
 28 23  1  0
M  END
$$$$
FCG18066182_QVINA2_1
     RDKit          3D

 19 20  0  0  0  0  0  0  0  0999 V2000
   10.8040   -7.0920   18.3700 C   0  0  0  0  0  0  0  0  0  0  0  0
   11.5490   -6.8960   19.6520 C   0  0  0  0  0  0  0  0  0  0  0  0
   10.9460   -6.8120   20.8540 N   0  0  0  0  0  0  0  0  0  0  0  0
   11.8870   -6.6810   21.7450 O   0  0  0  0  0  0  0  0  0  0  0  0
   13.0750   -6.6780   21.1860 C   0  0  0  0  0  0  0  0  0  0  0  0
   14.3580   -6.5570   21.9430 C   0  0  0  0  0  0  0  0  0  0  0  0
   12.9210   -6.8320   19.8210 C   0  0  0  0  0  0  0  0  0  0  0  0
   13.9980   -6.8930   18.7740 C   0  0  0  0  0  0  0  0  0  0  0  0
   13.9180   -5.4440   17.6590 S   0  0  0  0  0  0  0  0  0  0  0  0
   14.9010   -4.3070   18.6980 C   0  0  0  0  0  0  0  0  0  0  0  0
   14.5430   -2.8870   18.4010 C   0  0  0  0  0  0  0  0  0  0  0  0
   13.4540   -2.6270   17.8230 O   0  0  0  0  0  0  0  0  0  0  0  0
   15.4260   -1.8370   18.8090 N   0  0  0  0  0  2  0  0  0  0  0  0
   16.6610   -1.4660   18.1810 C   0  0  0  0  0  0  0  0  0  0  0  0
   16.7770   -1.6050   16.7920 C   0  0  0  0  0  0  0  0  0  0  0  0
   17.9550   -1.2300   16.1380 C   0  0  0  0  0  0  0  0  0  0  0  0
   19.0200   -0.6960   16.8680 C   0  0  0  0  0  0  0  0  0  0  0  0
   18.9050   -0.5280   18.2500 C   0  0  0  0  0  0  0  0  0  0  0  0
   17.7290   -0.9050   18.9080 C   0  0  0  0  0  0  0  0  0  0  0  0
  1  2  1  0
  2  3  2  0
  3  4  1  0
  4  5  1  0
  5  6  1  0
  5  7  2  0
  7  8  1  0
  8  9  1  0
  9 10  1  0
 10 11  1  0
 11 12  2  0
 11 13  1  0
 13 14  1  0
 14 15  2  0
 15 16  1  0
 16 17  2  0
 17 18  1  0
 18 19  2  0
  7  2  1  0
 19 14  1  0
M  CHG  1  13  -1
M  END
$$$$
FCG16952409_QVINA2_1
     RDKit          3D

 26 28  0  0  0  0  0  0  0  0999 V2000
   11.5570   -7.2250   21.2330 C   0  0  0  0  0  0  0  0  0  0  0  0
   10.5540   -7.3790   20.1460 C   0  0  0  0  0  0  0  0  0  0  0  0
    9.7690   -8.3350   20.0610 O   0  0  0  0  0  0  0  0  0  0  0  0
   10.4970   -6.3700   19.1490 N   0  0  0  0  0  2  0  0  0  0  0  0
   11.1740   -6.6360   17.8920 C   0  0  0  0  0  0  0  0  0  0  0  0
   12.4010   -5.7730   17.8710 C   0  0  0  0  0  0  0  0  0  0  0  0
   13.6650   -6.2880   17.8360 C   0  0  0  0  0  0  0  0  0  0  0  0
   14.5150   -5.2020   17.8250 C   0  0  0  0  0  0  0  0  0  0  0  0
   13.7080   -4.0630   17.8550 C   0  0  0  0  0  0  0  0  0  0  0  0
   14.2520   -2.7150   17.8560 C   0  0  0  0  0  0  0  0  0  0  0  0
   13.4680   -1.7630   18.0770 O   0  0  0  0  0  0  0  0  0  0  0  0
   15.6810   -2.4230   17.6070 C   0  0  0  0  0  0  0  0  0  0  0  0
   16.3350   -1.9380   18.7380 O   0  0  0  0  0  0  0  0  0  0  0  0
   17.1230   -0.7980   18.7550 C   0  0  0  0  0  0  0  0  0  0  0  0
   18.2950   -0.8600   19.1440 O   0  0  0  0  0  0  0  0  0  0  0  0
   16.5230    0.4360   18.3080 C   0  0  0  0  0  0  0  0  0  0  0  0
   16.7120    1.2170   17.2420 C   0  0  0  0  0  0  0  0  0  0  0  0
   15.9960    2.3360   17.0710 C   0  0  0  0  0  0  0  0  0  0  0  0
   15.0590    2.6360   18.0490 C   0  0  0  0  0  0  0  0  0  0  0  0
   15.2190    1.3250   19.1790 S   0  0  0  0  0  0  0  0  0  0  0  0
   14.0910    3.7420   18.2350 C   0  0  0  0  0  0  0  0  0  0  0  0
   13.8610    4.4390   16.9180 C   0  0  0  0  0  0  0  0  0  0  0  0
   13.6680    3.5090   15.7690 C   0  0  0  0  0  0  0  0  0  0  0  0
   14.9290    3.1420   15.0490 C   0  0  0  0  0  0  0  0  0  0  0  0
   16.1600    3.2710   15.8820 C   0  0  0  0  0  0  0  0  0  0  0  0
   12.4850   -4.4760   17.8810 O   0  0  0  0  0  0  0  0  0  0  0  0
  1  2  1  0
  2  3  2  0
  2  4  1  0
  4  5  1  0
  5  6  1  0
  6  7  2  0
  7  8  1  0
  8  9  2  0
  9 10  1  0
 10 11  2  0
 10 12  1  0
 12 13  1  0
 13 14  1  0
 14 15  2  0
 14 16  1  0
 16 17  2  0
 17 18  1  0
 18 19  2  0
 19 20  1  0
 19 21  1  0
 21 22  1  0
 22 23  1  0
 23 24  1  0
 24 25  1  0
  9 26  1  0
 26  6  1  0
 20 16  1  0
 25 18  1  0
M  CHG  1   4  -1
M  END
$$$$
FCG18472628_QVINA2_1
     RDKit          3D

 24 26  0  0  0  0  0  0  0  0999 V2000
   16.8040    1.0890   16.2430 C   0  0  0  0  0  0  0  0  0  0  0  0
   16.7500   -0.4060   16.5660 C   0  0  1  0  0  0  0  0  0  0  0  0
   18.0960   -1.0260   16.6530 C   0  0  1  0  0  0  0  0  0  0  0  0
   19.0270   -0.2370   15.7280 C   0  0  0  0  0  0  0  0  0  0  0  0
   18.7200   -1.0590   17.9910 C   0  0  0  0  0  0  0  0  0  0  0  0
   17.7900   -1.0530   19.1470 C   0  0  0  0  0  0  0  0  0  0  0  0
   16.4760   -1.6910   18.6920 C   0  0  0  0  0  0  0  0  0  0  0  0
   15.8640   -0.6560   17.7450 C   0  0  1  0  0  0  0  0  0  0  0  0
   15.7120    0.5650   18.5210 N   0  0  0  0  0  2  0  0  0  0  0  0
   14.4750    1.0480   18.9820 C   0  0  0  0  0  0  0  0  0  0  0  0
   13.5150    0.3060   19.3150 O   0  0  0  0  0  0  0  0  0  0  0  0
   14.2670    2.5240   19.0930 C   0  0  0  0  0  0  0  0  0  0  0  0
   13.9520    3.1150   17.8090 N   0  0  0  0  0  0  0  0  0  0  0  0
   14.0660    4.3970   17.5290 N   0  0  0  0  0  0  0  0  0  0  0  0
   13.7050    4.6310   16.2780 N   0  0  0  0  0  0  0  0  0  0  0  0
   13.3480    3.4580   15.7350 C   0  0  0  0  0  0  0  0  0  0  0  0
   12.8870    3.2970   14.3660 C   0  0  0  0  0  0  0  0  0  0  0  0
   13.7720    3.0450   13.3430 C   0  0  0  0  0  0  0  0  0  0  0  0
   13.3040    2.8960   12.0530 C   0  0  0  0  0  0  0  0  0  0  0  0
   11.9560    2.9940   11.7520 C   0  0  0  0  0  0  0  0  0  0  0  0
   11.0650    3.2460   12.7740 C   0  0  0  0  0  0  0  0  0  0  0  0
   11.5300    3.3940   14.0570 C   0  0  0  0  0  0  0  0  0  0  0  0
   10.2560    3.7410   15.4290 Br  0  0  0  0  0  0  0  0  0  0  0  0
   13.5090    2.5410   16.7000 N   0  0  0  0  0  0  0  0  0  0  0  0
  2  1  1  1
  2  3  1  0
  3  4  1  6
  3  5  1  0
  5  6  1  0
  6  7  1  0
  7  8  1  0
  8  9  1  1
  9 10  1  0
 10 11  2  0
 10 12  1  0
 12 13  1  0
 13 14  1  0
 14 15  2  0
 15 16  1  0
 16 17  1  0
 17 18  2  0
 18 19  1  0
 19 20  2  0
 20 21  1  0
 21 22  2  0
 22 23  1  0
 16 24  2  0
  8  2  1  0
 24 13  1  0
 22 17  1  0
M  CHG  1   9  -1
M  END
$$$$
FCG16141527_QVINA2_1
     RDKit          3D

 23 26  0  0  0  0  0  0  0  0999 V2000
   19.3820   -0.6930   15.2640 C   0  0  0  0  0  0  0  0  0  0  0  0
   18.1420   -0.5970   16.0860 C   0  0  0  0  0  0  0  0  0  0  0  0
   17.6280    0.6220   16.3930 N   0  0  0  0  0  0  0  0  0  0  0  0
   16.4670    0.7540   17.0880 C   0  0  0  0  0  0  0  0  0  0  0  0
   15.8540    2.4170   17.4010 S   0  0  0  0  0  0  0  0  0  0  0  0
   14.9990    2.5750   15.7930 C   0  0  0  0  0  0  0  0  0  0  0  0
   14.2780    3.8870   15.6960 C   0  0  0  0  0  0  0  0  0  0  0  0
   14.6660    4.8540   14.7470 C   0  0  0  0  0  0  0  0  0  0  0  0
   14.0140    6.0920   14.7350 C   0  0  0  0  0  0  0  0  0  0  0  0
   14.3500    6.9780   13.9020 O   0  0  0  0  0  0  0  0  0  0  0  0
   13.0210    6.3210   15.6370 N   0  0  0  0  0  0  0  0  0  0  0  0
   12.2870    7.4600   15.7710 C   0  0  0  0  0  0  0  0  0  0  0  0
   11.3390    7.4100   16.7930 C   0  0  0  0  0  0  0  0  0  0  0  0
   11.4300    5.8930   17.5420 S   0  0  0  0  0  0  0  0  0  0  0  0
   12.6660    5.3760   16.5340 C   0  0  0  0  0  0  0  0  0  0  0  0
   13.2790    4.1690   16.5820 N   0  0  0  0  0  0  0  0  0  0  0  0
   15.7770   -0.4000   17.5080 C   0  0  0  0  0  0  0  0  0  0  0  0
   14.5720   -0.3490   18.2360 C   0  0  0  0  0  0  0  0  0  0  0  0
   13.9310   -1.5330   18.6140 C   0  0  0  0  0  0  0  0  0  0  0  0
   14.4790   -2.7720   18.2710 C   0  0  0  0  0  0  0  0  0  0  0  0
   15.6730   -2.8350   17.5480 C   0  0  0  0  0  0  0  0  0  0  0  0
   16.3250   -1.6580   17.1670 C   0  0  0  0  0  0  0  0  0  0  0  0
   17.4830   -1.7240   16.4610 N   0  0  0  0  0  0  0  0  0  0  0  0
  1  2  1  0
  2  3  2  0
  3  4  1  0
  4  5  1  0
  5  6  1  0
  6  7  1  0
  7  8  2  0
  8  9  1  0
  9 10  2  0
  9 11  1  0
 11 12  1  0
 12 13  2  0
 13 14  1  0
 14 15  1  0
 15 16  2  0
  4 17  2  0
 17 18  1  0
 18 19  2  0
 19 20  1  0
 20 21  2  0
 21 22  1  0
 22 23  2  0
 23  2  1  0
 16  7  1  0
 22 17  1  0
 15 11  1  0
M  END
$$$$
FCG16600623_QVINA2_1
     RDKit          3D

 24 27  0  0  0  0  0  0  0  0999 V2000
   13.7090   -3.1800   17.9100 C   0  0  0  0  0  0  0  0  0  0  0  0
   14.6520   -3.6070   16.7770 C   0  0  2  0  0  0  0  0  0  0  0  0
   14.8310   -4.9820   16.8970 O   0  0  0  0  0  0  0  0  0  0  0  0
   14.7470   -5.7000   18.0590 C   0  0  0  0  0  0  0  0  0  0  0  0
   15.7750   -6.0150   18.6730 O   0  0  0  0  0  0  0  0  0  0  0  0
   13.4400   -6.1170   18.6060 C   0  0  0  0  0  0  0  0  0  0  0  0
   13.2150   -6.5370   19.9260 C   0  0  0  0  0  0  0  0  0  0  0  0
   11.9510   -6.8780   20.2400 C   0  0  0  0  0  0  0  0  0  0  0  0
   10.9820   -6.7930   19.2680 C   0  0  0  0  0  0  0  0  0  0  0  0
   11.9240   -6.2120   17.8900 S   0  0  0  0  0  0  0  0  0  0  0  0
    9.6510   -7.1970   19.7570 C   0  0  0  0  0  0  0  0  0  0  0  0
    9.8340   -7.0020   21.2470 C   0  0  0  0  0  0  0  0  0  0  0  0
   11.2480   -7.3880   21.5090 C   0  0  0  0  0  0  0  0  0  0  0  0
   15.8950   -2.8290   16.9590 C   0  0  0  0  0  0  0  0  0  0  0  0
   16.6980   -2.5580   15.9170 N   0  0  0  0  0  0  0  0  0  0  0  0
   17.8420   -1.8520   16.0330 C   0  0  0  0  0  0  0  0  0  0  0  0
   18.6590   -1.5800   14.9570 C   0  0  0  0  0  0  0  0  0  0  0  0
   19.8350   -0.8590   15.0520 C   0  0  0  0  0  0  0  0  0  0  0  0
   20.1840   -0.4000   16.3010 C   0  0  0  0  0  0  0  0  0  0  0  0
   19.4010   -0.6460   17.4060 C   0  0  0  0  0  0  0  0  0  0  0  0
   18.2160   -1.3810   17.2740 C   0  0  0  0  0  0  0  0  0  0  0  0
   17.3990   -1.6530   18.3420 C   0  0  0  0  0  0  0  0  0  0  0  0
   17.7620   -1.2110   19.4680 O   0  0  0  0  0  0  0  0  0  0  0  0
   16.2700   -2.3620   18.1720 N   0  0  0  0  0  2  0  0  0  0  0  0
  2  1  1  1
  2  3  1  0
  3  4  1  0
  4  5  2  0
  4  6  1  0
  6  7  2  0
  7  8  1  0
  8  9  2  0
  9 10  1  0
  9 11  1  0
 11 12  1  0
 12 13  1  0
  2 14  1  0
 14 15  2  0
 15 16  1  0
 16 17  2  0
 17 18  1  0
 18 19  2  0
 19 20  1  0
 20 21  2  0
 21 22  1  0
 22 23  2  0
 22 24  1  0
 10  6  1  0
 24 14  1  0
 13  8  1  0
 21 16  1  0
M  CHG  1  24  -1
M  END
$$$$
FCG1390566_QVINA2_1
     RDKit          3D

 14 15  0  0  0  0  0  0  0  0999 V2000
   14.6430   -2.6110   18.7430 C   0  0  0  0  0  0  0  0  0  0  0  0
   14.6580   -3.6270   17.6870 N   0  0  0  0  0  0  0  0  0  0  0  0
   15.3470   -3.3760   16.4190 C   0  0  0  0  0  0  0  0  0  0  0  0
   13.9900   -4.8850   17.8900 C   0  0  0  0  0  0  0  0  0  0  0  0
   12.6460   -5.0270   17.8460 N   0  0  0  0  0  0  0  0  0  0  0  0
   12.2660   -6.3140   18.0700 C   0  0  0  0  0  0  0  0  0  0  0  0
   10.8290   -6.7290   18.0240 C   0  0  0  0  0  0  0  0  0  0  0  0
   10.2920   -6.8660   19.4110 C   0  0  0  0  0  0  0  0  0  0  0  0
    8.9980   -7.0790   19.7040 N   0  0  0  0  0  0  0  0  0  0  0  0
    8.9510   -7.0720   21.0270 N   0  0  0  0  0  0  0  0  0  0  0  0
   10.1620   -6.8520   21.5170 N   0  0  0  0  0  0  0  0  0  0  0  0
   11.0270   -6.7110   20.5270 N   0  0  0  0  0  2  0  0  0  0  0  0
   13.3100   -7.2140   18.2750 C   0  0  0  0  0  0  0  0  0  0  0  0
   14.7540   -6.3560   18.1920 S   0  0  0  0  0  0  0  0  0  0  0  0
  1  2  1  0
  2  3  1  0
  2  4  1  0
  4  5  2  0
  5  6  1  0
  6  7  1  0
  7  8  1  0
  8  9  2  0
  9 10  1  0
 10 11  2  0
 11 12  1  0
  6 13  2  0
 13 14  1  0
 14  4  1  0
 12  8  1  0
M  CHG  1  12  -1
M  END
$$$$
FCG17585042_QVINA2_1
     RDKit          3D

 25 28  0  0  0  0  0  0  0  0999 V2000
   15.3990   -5.8980   18.7490 C   0  0  0  0  0  0  0  0  0  0  0  0
   14.4270   -4.9440   18.2180 N   0  0  0  0  0  0  0  0  0  0  0  0
   13.1670   -5.1760   17.7950 C   0  0  0  0  0  0  0  0  0  0  0  0
   12.5000   -6.5190   17.7430 C   0  0  0  0  0  0  0  0  0  0  0  0
   11.6820   -6.7490   18.9840 C   0  0  0  0  0  0  0  0  0  0  0  0
   12.3070   -6.9450   20.2270 C   0  0  0  0  0  0  0  0  0  0  0  0
   11.5390   -7.1360   21.3790 C   0  0  0  0  0  0  0  0  0  0  0  0
   10.1440   -7.1310   21.3010 C   0  0  0  0  0  0  0  0  0  0  0  0
    9.5140   -6.9340   20.0700 C   0  0  0  0  0  0  0  0  0  0  0  0
   10.2780   -6.7430   18.9140 C   0  0  0  0  0  0  0  0  0  0  0  0
   12.5290   -4.0240   17.5040 N   0  0  0  0  0  0  0  0  0  0  0  0
   13.3790   -3.0370   17.7410 N   0  0  0  0  0  0  0  0  0  0  0  0
   14.5210   -3.6000   18.1780 C   0  0  0  0  0  0  0  0  0  0  0  0
   15.9650   -2.6520   18.6690 S   0  0  0  0  0  0  0  0  0  0  0  0
   16.0370   -1.6790   17.1270 C   0  0  0  0  0  0  0  0  0  0  0  0
   15.6710   -0.2530   17.3860 C   0  0  0  0  0  0  0  0  0  0  0  0
   16.1500    0.7330   16.5670 N   0  0  0  0  0  0  0  0  0  0  0  0
   15.7820    2.0200   16.7840 C   0  0  0  0  0  0  0  0  0  0  0  0
   16.1940    3.1150   16.0230 C   0  0  0  0  0  0  0  0  0  0  0  0
   15.6450    4.3130   16.4830 C   0  0  0  0  0  0  0  0  0  0  0  0
   14.6590    3.9980   17.8250 S   0  0  0  0  0  0  0  0  0  0  0  0
   14.9310    2.3420   17.8180 C   0  0  0  0  0  0  0  0  0  0  0  0
   14.4380    1.3450   18.6500 C   0  0  0  0  0  0  0  0  0  0  0  0
   13.6570    1.6130   19.5990 O   0  0  0  0  0  0  0  0  0  0  0  0
   14.8190    0.0580   18.4120 N   0  0  0  0  0  2  0  0  0  0  0  0
  1  2  1  0
  2  3  1  0
  3  4  1  0
  4  5  1  0
  5  6  2  0
  6  7  1  0
  7  8  2  0
  8  9  1  0
  9 10  2  0
  3 11  2  0
 11 12  1  0
 12 13  2  0
 13 14  1  0
 14 15  1  0
 15 16  1  0
 16 17  2  0
 17 18  1  0
 18 19  1  0
 19 20  2  0
 20 21  1  0
 21 22  1  0
 22 23  1  0
 23 24  2  0
 23 25  1  0
 13  2  1  0
 25 16  1  0
 10  5  1  0
 22 18  2  0
M  CHG  1  25  -1
M  END
$$$$
FCG16425532_QVINA2_1
     RDKit          3D

 18 19  0  0  0  0  0  0  0  0999 V2000
   14.1500   -6.7540   20.5190 C   0  0  0  0  0  0  0  0  0  0  0  0
   13.0150   -6.6350   19.6070 N   0  0  0  0  0  0  0  0  0  0  0  0
   11.8300   -7.2610   19.7600 C   0  0  0  0  0  0  0  0  0  0  0  0
   10.9880   -6.9400   18.7150 C   0  0  0  0  0  0  0  0  0  0  0  0
   11.6890   -6.0840   17.8900 C   0  0  0  0  0  0  0  0  0  0  0  0
   12.9360   -5.9130   18.4650 C   0  0  0  0  0  0  0  0  0  0  0  0
   14.0080   -5.0680   17.8990 C   0  0  0  0  0  0  0  0  0  0  0  0
   14.7090   -5.5110   16.9480 O   0  0  0  0  0  0  0  0  0  0  0  0
   14.2410   -3.7850   18.4070 O   0  0  0  0  0  0  0  0  0  0  0  0
   14.3540   -2.6240   17.5860 C   0  0  0  0  0  0  0  0  0  0  0  0
   15.7600   -2.0760   17.6420 C   0  0  0  0  0  0  0  0  0  0  0  0
   16.1840   -1.3730   18.7830 C   0  0  0  0  0  0  0  0  0  0  0  0
   17.4730   -0.8380   18.8490 C   0  0  0  0  0  0  0  0  0  0  0  0
   18.3520   -0.9970   17.7780 C   0  0  0  0  0  0  0  0  0  0  0  0
   17.9460   -1.6900   16.6350 C   0  0  0  0  0  0  0  0  0  0  0  0
   16.6540   -2.2290   16.5570 C   0  0  0  0  0  0  0  0  0  0  0  0
   16.2690   -2.9350   15.3590 C   0  0  0  0  0  0  0  0  0  0  0  0
   15.9590   -3.5030   14.3990 N   0  0  0  0  0  0  0  0  0  0  0  0
  1  2  1  0
  2  3  1  0
  3  4  2  0
  4  5  1  0
  5  6  2  0
  6  7  1  0
  7  8  2  0
  7  9  1  0
  9 10  1  0
 10 11  1  0
 11 12  2  0
 12 13  1  0
 13 14  2  0
 14 15  1  0
 15 16  2  0
 16 17  1  0
 17 18  3  0
  6  2  1  0
 16 11  1  0
M  END
$$$$
FCG17822054_QVINA2_1
     RDKit          3D

 21 23  0  0  0  0  0  0  0  0999 V2000
   22.9100   -1.0970   18.8040 N   0  0  0  0  0  0  0  0  0  0  0  0
   21.5940   -0.8860   18.3770 C   0  0  0  0  0  0  0  0  0  0  0  0
   20.4490   -0.7160   17.9880 C   0  0  0  0  0  0  0  0  0  0  0  0
   19.3590   -0.4020   18.8980 C   0  0  0  0  0  0  0  0  0  0  0  0
   18.1700   -0.0780   18.4680 C   0  0  0  0  0  0  0  0  0  0  0  0
   17.7870    0.0060   17.1090 C   0  0  0  0  0  0  0  0  0  0  0  0
   16.4280    0.4240   16.7640 C   0  0  0  0  0  0  0  0  0  0  0  0
   15.4240    0.0470   18.2660 S   0  0  0  0  0  0  0  0  0  0  0  0
   14.5470   -1.4850   18.0100 C   0  0  0  0  0  0  0  0  0  0  0  0
   13.2560   -1.8110   18.0840 N   0  0  0  0  0  0  0  0  0  0  0  0
   13.1370   -3.1300   17.7660 N   0  0  0  0  0  0  0  0  0  0  0  0
   14.4150   -3.5620   17.5000 C   0  0  0  0  0  0  0  0  0  0  0  0
   14.7540   -4.9830   17.0970 C   0  0  0  0  0  0  0  0  0  0  0  0
   14.4970   -5.9680   18.0230 N   0  0  0  0  0  0  0  0  0  0  0  0
   14.8620   -5.7130   19.3640 C   0  0  0  0  0  0  0  0  0  0  0  0
   14.1690   -6.8230   20.1690 C   0  0  0  0  0  0  0  0  0  0  0  0
   12.8880   -6.9620   19.3340 C   0  0  0  0  0  0  0  0  0  0  0  0
   13.5330   -6.9560   17.9380 C   0  0  0  0  0  0  0  0  0  0  0  0
   15.1970   -2.5820   17.6570 O   0  0  0  0  0  0  0  0  0  0  0  0
   18.8130   -0.2990   16.2250 C   0  0  0  0  0  0  0  0  0  0  0  0
   20.0410   -0.6320   16.6100 C   0  0  0  0  0  0  0  0  0  0  0  0
  1  2  3  0
  2  3  1  0
  3  4  2  0
  4  5  1  0
  5  6  2  0
  6  7  1  0
  7  8  1  0
  8  9  1  0
  9 10  2  0
 10 11  1  0
 11 12  2  0
 12 13  1  0
 13 14  1  0
 14 15  1  0
 15 16  1  0
 16 17  1  0
 17 18  1  0
 12 19  1  0
  6 20  1  0
 20 21  2  0
 21  3  1  0
 19  9  1  0
 18 14  1  0
M  END
$$$$
FCG18066182_QVINA2_1
     RDKit          3D

 19 20  0  0  0  0  0  0  0  0999 V2000
   14.3280   -6.5330   21.7810 C   0  0  0  0  0  0  0  0  0  0  0  0
   13.0530   -6.7310   21.0260 C   0  0  0  0  0  0  0  0  0  0  0  0
   11.8480   -6.8320   21.6190 N   0  0  0  0  0  0  0  0  0  0  0  0
   10.9640   -6.9600   20.6710 O   0  0  0  0  0  0  0  0  0  0  0  0
   11.5310   -6.9450   19.4870 C   0  0  0  0  0  0  0  0  0  0  0  0
   10.7830   -7.0570   18.1980 C   0  0  0  0  0  0  0  0  0  0  0  0
   12.8940   -6.7810   19.6520 C   0  0  0  0  0  0  0  0  0  0  0  0
   13.9470   -6.6990   18.5820 C   0  0  0  0  0  0  0  0  0  0  0  0
   13.8120   -5.1350   17.6410 S   0  0  0  0  0  0  0  0  0  0  0  0
   14.8720   -4.1240   18.7340 C   0  0  0  0  0  0  0  0  0  0  0  0
   14.6380   -2.6690   18.4870 C   0  0  0  0  0  0  0  0  0  0  0  0
   13.5350   -2.2870   18.0100 O   0  0  0  0  0  0  0  0  0  0  0  0
   15.6570   -1.7240   18.8270 N   0  0  0  0  0  2  0  0  0  0  0  0
   16.8400   -1.4320   18.0690 C   0  0  0  0  0  0  0  0  0  0  0  0
   16.8420   -1.7000   16.6950 C   0  0  0  0  0  0  0  0  0  0  0  0
   17.9650   -1.4050   15.9160 C   0  0  0  0  0  0  0  0  0  0  0  0
   19.0900   -0.8230   16.5050 C   0  0  0  0  0  0  0  0  0  0  0  0
   19.0900   -0.5270   17.8700 C   0  0  0  0  0  0  0  0  0  0  0  0
   17.9690   -0.8230   18.6530 C   0  0  0  0  0  0  0  0  0  0  0  0
  1  2  1  0
  2  3  2  0
  3  4  1  0
  4  5  1  0
  5  6  1  0
  5  7  2  0
  7  8  1  0
  8  9  1  0
  9 10  1  0
 10 11  1  0
 11 12  2  0
 11 13  1  0
 13 14  1  0
 14 15  2  0
 15 16  1  0
 16 17  2  0
 17 18  1  0
 18 19  2  0
  7  2  1  0
 19 14  1  0
M  CHG  1  13  -1
M  END
$$$$
FCG17585042_QVINA2_1
     RDKit          3D

 25 28  0  0  0  0  0  0  0  0999 V2000
   17.1150   -1.9340   17.3280 C   0  0  0  0  0  0  0  0  0  0  0  0
   15.7660   -1.7180   17.8490 N   0  0  0  0  0  0  0  0  0  0  0  0
   15.2740   -0.6340   18.4830 C   0  0  0  0  0  0  0  0  0  0  0  0
   16.0550    0.5990   18.8330 C   0  0  0  0  0  0  0  0  0  0  0  0
   15.6300    1.7540   17.9670 C   0  0  0  0  0  0  0  0  0  0  0  0
   16.1530    1.9070   16.6720 C   0  0  0  0  0  0  0  0  0  0  0  0
   15.7370    2.9700   15.8660 C   0  0  0  0  0  0  0  0  0  0  0  0
   14.7970    3.8860   16.3440 C   0  0  0  0  0  0  0  0  0  0  0  0
   14.2710    3.7410   17.6310 C   0  0  0  0  0  0  0  0  0  0  0  0
   14.6840    2.6780   18.4410 C   0  0  0  0  0  0  0  0  0  0  0  0
   13.9470   -0.7490   18.6910 N   0  0  0  0  0  0  0  0  0  0  0  0
   13.5730   -1.9160   18.1870 N   0  0  0  0  0  0  0  0  0  0  0  0
   14.6770   -2.4910   17.6740 C   0  0  0  0  0  0  0  0  0  0  0  0
   14.6630   -4.0820   16.8400 S   0  0  0  0  0  0  0  0  0  0  0  0
   15.4310   -4.9860   18.2270 C   0  0  0  0  0  0  0  0  0  0  0  0
   14.3850   -5.6210   19.0850 C   0  0  0  0  0  0  0  0  0  0  0  0
   13.1680   -5.9440   18.5490 N   0  0  0  0  0  0  0  0  0  0  0  0
   12.2380   -6.5570   19.3220 C   0  0  0  0  0  0  0  0  0  0  0  0
   10.9650   -6.9410   18.9000 C   0  0  0  0  0  0  0  0  0  0  0  0
   10.2340   -7.5560   19.9180 C   0  0  0  0  0  0  0  0  0  0  0  0
   11.1770   -7.6140   21.3250 S   0  0  0  0  0  0  0  0  0  0  0  0
   12.5090   -6.8600   20.6380 C   0  0  0  0  0  0  0  0  0  0  0  0
   13.7440   -6.5390   21.1860 C   0  0  0  0  0  0  0  0  0  0  0  0
   14.0160   -6.8080   22.3850 O   0  0  0  0  0  0  0  0  0  0  0  0
   14.6640   -5.9250   20.3900 N   0  0  0  0  0  2  0  0  0  0  0  0
  1  2  1  0
  2  3  1  0
  3  4  1  0
  4  5  1  0
  5  6  2  0
  6  7  1  0
  7  8  2  0
  8  9  1  0
  9 10  2  0
  3 11  2  0
 11 12  1  0
 12 13  2  0
 13 14  1  0
 14 15  1  0
 15 16  1  0
 16 17  2  0
 17 18  1  0
 18 19  1  0
 19 20  2  0
 20 21  1  0
 21 22  1  0
 22 23  1  0
 23 24  2  0
 23 25  1  0
 13  2  1  0
 25 16  1  0
 10  5  1  0
 22 18  2  0
M  CHG  1  25  -1
M  END
$$$$
FCG17822054_QVINA2_1
     RDKit          3D

 21 23  0  0  0  0  0  0  0  0999 V2000
   23.0690   -1.1410   18.7280 N   0  0  0  0  0  0  0  0  0  0  0  0
   21.7680   -0.9500   18.2480 C   0  0  0  0  0  0  0  0  0  0  0  0
   20.6400   -0.7640   17.8220 C   0  0  0  0  0  0  0  0  0  0  0  0
   19.5080   -0.5180   18.7020 C   0  0  0  0  0  0  0  0  0  0  0  0
   18.3350   -0.1750   18.2430 C   0  0  0  0  0  0  0  0  0  0  0  0
   18.0100   -0.0060   16.8770 C   0  0  0  0  0  0  0  0  0  0  0  0
   16.6630    0.4230   16.5020 C   0  0  0  0  0  0  0  0  0  0  0  0
   15.6610    0.2280   18.0390 S   0  0  0  0  0  0  0  0  0  0  0  0
   14.7190   -1.2830   17.9320 C   0  0  0  0  0  0  0  0  0  0  0  0
   13.4580   -1.5860   18.2410 N   0  0  0  0  0  0  0  0  0  0  0  0
   13.2530   -2.8970   17.9360 N   0  0  0  0  0  0  0  0  0  0  0  0
   14.4510   -3.3490   17.4320 C   0  0  0  0  0  0  0  0  0  0  0  0
   14.6790   -4.7700   16.9570 C   0  0  0  0  0  0  0  0  0  0  0  0
   14.4170   -5.7750   17.8580 N   0  0  0  0  0  0  0  0  0  0  0  0
   14.9930   -5.6640   19.1440 C   0  0  0  0  0  0  0  0  0  0  0  0
   14.2690   -6.7280   19.9830 C   0  0  0  0  0  0  0  0  0  0  0  0
   12.8800   -6.6400   19.3370 C   0  0  0  0  0  0  0  0  0  0  0  0
   13.3220   -6.6200   17.8640 C   0  0  0  0  0  0  0  0  0  0  0  0
   15.2690   -2.3860   17.4530 O   0  0  0  0  0  0  0  0  0  0  0  0
   19.0750   -0.2450   16.0200 C   0  0  0  0  0  0  0  0  0  0  0  0
   20.2890   -0.5940   16.4360 C   0  0  0  0  0  0  0  0  0  0  0  0
  1  2  3  0
  2  3  1  0
  3  4  2  0
  4  5  1  0
  5  6  2  0
  6  7  1  0
  7  8  1  0
  8  9  1  0
  9 10  2  0
 10 11  1  0
 11 12  2  0
 12 13  1  0
 13 14  1  0
 14 15  1  0
 15 16  1  0
 16 17  1  0
 17 18  1  0
 12 19  1  0
  6 20  1  0
 20 21  2  0
 21  3  1  0
 19  9  1  0
 18 14  1  0
M  END
$$$$
FCG17274676_QVINA2_1
     RDKit          3D

 28 31  0  0  0  0  0  0  0  0999 V2000
   17.8400   -0.8740   19.1030 C   0  0  0  0  0  0  0  0  0  0  0  0
   17.1390   -1.2330   17.7980 C   0  0  0  0  0  0  0  0  0  0  0  0
   15.6940   -0.9940   17.9020 N   0  0  0  0  0  0  0  0  0  0  0  0
   14.7540   -2.0590   17.6420 C   0  0  0  0  0  0  0  0  0  0  0  0
   13.5530   -1.9420   18.0070 O   0  0  0  0  0  0  0  0  0  0  0  0
   15.1800   -3.3230   16.9540 C   0  0  0  0  0  0  0  0  0  0  0  0
   14.0580   -4.1910   16.8240 O   0  0  0  0  0  0  0  0  0  0  0  0
   13.8010   -5.2920   17.6500 C   0  0  0  0  0  0  0  0  0  0  0  0
   14.8810   -6.0860   18.0460 C   0  0  0  0  0  0  0  0  0  0  0  0
   14.6780   -7.2040   18.8560 C   0  0  0  0  0  0  0  0  0  0  0  0
   13.3910   -7.5390   19.2820 C   0  0  0  0  0  0  0  0  0  0  0  0
   12.2870   -6.7520   18.9030 C   0  0  0  0  0  0  0  0  0  0  0  0
   10.9510   -7.0810   19.3350 N   0  0  0  0  0  0  0  0  0  0  0  0
   10.5520   -8.0030   20.2310 C   0  0  0  0  0  0  0  0  0  0  0  0
    9.2100   -7.9850   20.3390 N   0  0  0  0  0  0  0  0  0  0  0  0
    8.8050   -7.0430   19.4980 N   0  0  0  0  0  0  0  0  0  0  0  0
    9.8490   -6.4980   18.8930 N   0  0  0  0  0  0  0  0  0  0  0  0
   12.5040   -5.6270   18.0850 C   0  0  0  0  0  0  0  0  0  0  0  0
   15.2320    0.3080   18.3030 C   0  0  0  0  0  0  0  0  0  0  0  0
   14.4750    0.4260   19.4770 C   0  0  0  0  0  0  0  0  0  0  0  0
   13.9680    1.6620   19.8760 C   0  0  0  0  0  0  0  0  0  0  0  0
   14.2090    2.8010   19.1090 C   0  0  0  0  0  0  0  0  0  0  0  0
   14.9710    2.7140   17.9350 C   0  0  0  0  0  0  0  0  0  0  0  0
   15.2150    3.8610   17.1640 C   0  0  0  0  0  0  0  0  0  0  0  0
   15.9800    3.7770   15.9990 C   0  0  0  0  0  0  0  0  0  0  0  0
   16.5100    2.5510   15.5960 C   0  0  0  0  0  0  0  0  0  0  0  0
   16.2730    1.3990   16.3500 C   0  0  0  0  0  0  0  0  0  0  0  0
   15.4970    1.4610   17.5250 C   0  0  0  0  0  0  0  0  0  0  0  0
  1  2  1  0
  2  3  1  0
  3  4  1  0
  4  5  2  0
  4  6  1  0
  6  7  1  0
  7  8  1  0
  8  9  2  0
  9 10  1  0
 10 11  2  0
 11 12  1  0
 12 13  1  0
 13 14  1  0
 14 15  2  0
 15 16  1  0
 16 17  2  0
 12 18  2  0
  3 19  1  0
 19 20  2  0
 20 21  1  0
 21 22  2  0
 22 23  1  0
 23 24  2  0
 24 25  1  0
 25 26  2  0
 26 27  1  0
 27 28  2  0
 18  8  1  0
 28 19  1  0
 17 13  1  0
 28 23  1  0
M  END
$$$$
FCG16952409_QVINA2_1
     RDKit          3D

 26 28  0  0  0  0  0  0  0  0999 V2000
   11.1950   -7.0610   21.4990 C   0  0  0  0  0  0  0  0  0  0  0  0
   10.6100   -7.4450   20.1870 C   0  0  0  0  0  0  0  0  0  0  0  0
   10.2330   -8.5930   19.9090 O   0  0  0  0  0  0  0  0  0  0  0  0
   10.4790   -6.4360   19.1980 N   0  0  0  0  0  2  0  0  0  0  0  0
   11.1050   -6.6800   17.9090 C   0  0  0  0  0  0  0  0  0  0  0  0
   12.3470   -5.8390   17.8670 C   0  0  0  0  0  0  0  0  0  0  0  0
   13.5990   -6.3770   17.7910 C   0  0  0  0  0  0  0  0  0  0  0  0
   14.4690   -5.3060   17.7720 C   0  0  0  0  0  0  0  0  0  0  0  0
   13.6850   -4.1530   17.8390 C   0  0  0  0  0  0  0  0  0  0  0  0
   14.2540   -2.8160   17.8430 C   0  0  0  0  0  0  0  0  0  0  0  0
   13.5010   -1.8560   18.1310 O   0  0  0  0  0  0  0  0  0  0  0  0
   15.6720   -2.5430   17.5220 C   0  0  0  0  0  0  0  0  0  0  0  0
   16.3470   -1.9140   18.5670 O   0  0  0  0  0  0  0  0  0  0  0  0
   17.1720   -0.8120   18.4120 C   0  0  0  0  0  0  0  0  0  0  0  0
   18.3930   -0.9220   18.5780 O   0  0  0  0  0  0  0  0  0  0  0  0
   16.5520    0.4410   18.0550 C   0  0  0  0  0  0  0  0  0  0  0  0
   16.6690    1.2600   17.0070 C   0  0  0  0  0  0  0  0  0  0  0  0
   15.9520    2.3890   16.9300 C   0  0  0  0  0  0  0  0  0  0  0  0
   15.0940    2.6600   17.9850 C   0  0  0  0  0  0  0  0  0  0  0  0
   15.3260    1.3080   19.0530 S   0  0  0  0  0  0  0  0  0  0  0  0
   14.1540    3.7650   18.2830 C   0  0  0  0  0  0  0  0  0  0  0  0
   13.8320    4.5100   17.0120 C   0  0  0  0  0  0  0  0  0  0  0  0
   13.5460    3.6240   15.8490 C   0  0  0  0  0  0  0  0  0  0  0  0
   14.7450    3.2750   15.0230 C   0  0  0  0  0  0  0  0  0  0  0  0
   16.0360    3.3660   15.7650 C   0  0  0  0  0  0  0  0  0  0  0  0
   12.4560   -4.5440   17.8920 O   0  0  0  0  0  0  0  0  0  0  0  0
  1  2  1  0
  2  3  2  0
  2  4  1  0
  4  5  1  0
  5  6  1  0
  6  7  2  0
  7  8  1  0
  8  9  2  0
  9 10  1  0
 10 11  2  0
 10 12  1  0
 12 13  1  0
 13 14  1  0
 14 15  2  0
 14 16  1  0
 16 17  2  0
 17 18  1  0
 18 19  2  0
 19 20  1  0
 19 21  1  0
 21 22  1  0
 22 23  1  0
 23 24  1  0
 24 25  1  0
  9 26  1  0
 26  6  1  0
 20 16  1  0
 25 18  1  0
M  CHG  1   4  -1
M  END
$$$$
FCG18472628_QVINA2_1
     RDKit          3D

 24 26  0  0  0  0  0  0  0  0999 V2000
   13.9400    3.2580   13.4540 C   0  0  0  0  0  0  0  0  0  0  0  0
   12.7530    4.1820   13.1670 C   0  0  1  0  0  0  0  0  0  0  0  0
   11.7220    3.5460   12.3100 C   0  0  1  0  0  0  0  0  0  0  0  0
   12.4310    2.5250   11.4150 C   0  0  0  0  0  0  0  0  0  0  0  0
   10.6270    2.8410   13.0080 C   0  0  0  0  0  0  0  0  0  0  0  0
   10.3160    3.3140   14.3800 C   0  0  0  0  0  0  0  0  0  0  0  0
   10.7050    4.7910   14.4630 C   0  0  0  0  0  0  0  0  0  0  0  0
   12.2360    4.7780   14.4380 C   0  0  1  0  0  0  0  0  0  0  0  0
   12.6540    3.9730   15.5730 N   0  0  0  0  0  2  0  0  0  0  0  0
   13.1140    4.5120   16.7870 C   0  0  0  0  0  0  0  0  0  0  0  0
   12.3890    5.1730   17.5760 O   0  0  0  0  0  0  0  0  0  0  0  0
   14.5390    4.3010   17.1840 C   0  0  0  0  0  0  0  0  0  0  0  0
   14.7150    3.0510   17.8920 N   0  0  0  0  0  0  0  0  0  0  0  0
   14.7770    2.9380   19.2040 N   0  0  0  0  0  0  0  0  0  0  0  0
   14.9410    1.6720   19.5510 N   0  0  0  0  0  0  0  0  0  0  0  0
   14.9860    0.9470   18.4240 C   0  0  0  0  0  0  0  0  0  0  0  0
   15.1580   -0.4960   18.3870 C   0  0  0  0  0  0  0  0  0  0  0  0
   14.0740   -1.3380   18.2790 C   0  0  0  0  0  0  0  0  0  0  0  0
   14.2700   -2.7040   18.2460 C   0  0  0  0  0  0  0  0  0  0  0  0
   15.5360   -3.2600   18.3170 C   0  0  0  0  0  0  0  0  0  0  0  0
   16.6240   -2.4200   18.4250 C   0  0  0  0  0  0  0  0  0  0  0  0
   16.4300   -1.0620   18.4580 C   0  0  0  0  0  0  0  0  0  0  0  0
   17.9690    0.0500   18.6070 Br  0  0  0  0  0  0  0  0  0  0  0  0
   14.8450    1.8200   17.4170 N   0  0  0  0  0  0  0  0  0  0  0  0
  2  1  1  1
  2  3  1  0
  3  4  1  6
  3  5  1  0
  5  6  1  0
  6  7  1  0
  7  8  1  0
  8  9  1  1
  9 10  1  0
 10 11  2  0
 10 12  1  0
 12 13  1  0
 13 14  1  0
 14 15  2  0
 15 16  1  0
 16 17  1  0
 17 18  2  0
 18 19  1  0
 19 20  2  0
 20 21  1  0
 21 22  2  0
 22 23  1  0
 16 24  2  0
  8  2  1  0
 24 13  1  0
 22 17  1  0
M  CHG  1   9  -1
M  END
$$$$
FCG16600623_QVINA2_1
     RDKit          3D

 24 27  0  0  0  0  0  0  0  0999 V2000
   14.5110   -3.2490   17.8000 C   0  0  0  0  0  0  0  0  0  0  0  0
   14.8390   -1.9440   18.5390 C   0  0  2  0  0  0  0  0  0  0  0  0
   13.8670   -1.0180   18.1740 O   0  0  0  0  0  0  0  0  0  0  0  0
   13.7990    0.2800   18.6010 C   0  0  0  0  0  0  0  0  0  0  0  0
   13.4070    0.5410   19.7460 O   0  0  0  0  0  0  0  0  0  0  0  0
   14.1870    1.3970   17.7150 C   0  0  0  0  0  0  0  0  0  0  0  0
   13.2920    2.2770   17.0870 C   0  0  0  0  0  0  0  0  0  0  0  0
   13.8370    3.2360   16.3140 C   0  0  0  0  0  0  0  0  0  0  0  0
   15.2060    3.2900   16.1930 C   0  0  0  0  0  0  0  0  0  0  0  0
   15.6980    1.9330   17.2140 S   0  0  0  0  0  0  0  0  0  0  0  0
   15.6550    4.3890   15.3190 C   0  0  0  0  0  0  0  0  0  0  0  0
   14.4490    5.3010   15.3810 C   0  0  0  0  0  0  0  0  0  0  0  0
   13.2810    4.3810   15.4530 C   0  0  0  0  0  0  0  0  0  0  0  0
   16.2050   -1.5660   18.1230 C   0  0  0  0  0  0  0  0  0  0  0  0
   16.6170   -1.7520   16.8570 N   0  0  0  0  0  0  0  0  0  0  0  0
   17.8540   -1.4240   16.4290 C   0  0  0  0  0  0  0  0  0  0  0  0
   18.2650   -1.6190   15.1290 C   0  0  0  0  0  0  0  0  0  0  0  0
   19.5260   -1.2910   14.6680 C   0  0  0  0  0  0  0  0  0  0  0  0
   20.3970   -0.7400   15.5790 C   0  0  0  0  0  0  0  0  0  0  0  0
   20.0330   -0.5250   16.8880 C   0  0  0  0  0  0  0  0  0  0  0  0
   18.7470   -0.8700   17.3230 C   0  0  0  0  0  0  0  0  0  0  0  0
   18.3330   -0.6760   18.6160 C   0  0  0  0  0  0  0  0  0  0  0  0
   19.1670   -0.1680   19.4150 O   0  0  0  0  0  0  0  0  0  0  0  0
   17.0890   -1.0220   18.9900 N   0  0  0  0  0  2  0  0  0  0  0  0
  2  1  1  6
  2  3  1  0
  3  4  1  0
  4  5  2  0
  4  6  1  0
  6  7  2  0
  7  8  1  0
  8  9  2  0
  9 10  1  0
  9 11  1  0
 11 12  1  0
 12 13  1  0
  2 14  1  0
 14 15  2  0
 15 16  1  0
 16 17  2  0
 17 18  1  0
 18 19  2  0
 19 20  1  0
 20 21  2  0
 21 22  1  0
 22 23  2  0
 22 24  1  0
 10  6  1  0
 24 14  1  0
 13  8  1  0
 21 16  1  0
M  CHG  1  24  -1
M  END
$$$$
FCG1390566_QVINA2_1
     RDKit          3D

 14 15  0  0  0  0  0  0  0  0999 V2000
   15.3670   -3.3160   16.4210 C   0  0  0  0  0  0  0  0  0  0  0  0
   14.6550   -3.5780   17.6740 N   0  0  0  0  0  0  0  0  0  0  0  0
   14.6060   -2.5660   18.7320 C   0  0  0  0  0  0  0  0  0  0  0  0
   13.9960   -4.8410   17.8770 C   0  0  0  0  0  0  0  0  0  0  0  0
   12.6520   -4.9910   17.8370 N   0  0  0  0  0  0  0  0  0  0  0  0
   12.2810   -6.2810   18.0600 C   0  0  0  0  0  0  0  0  0  0  0  0
   10.8470   -6.7050   18.0170 C   0  0  0  0  0  0  0  0  0  0  0  0
   10.2990   -6.7920   19.4030 C   0  0  0  0  0  0  0  0  0  0  0  0
   11.0420   -6.6970   20.5190 N   0  0  0  0  0  0  0  0  0  0  0  0
   10.1840   -6.8900   21.5080 N   0  0  0  0  0  0  0  0  0  0  0  0
    8.9740   -7.1060   21.0160 N   0  0  0  0  0  0  0  0  0  0  0  0
    9.0130   -7.0570   19.6950 N   0  0  0  0  0  2  0  0  0  0  0  0
   13.3310   -7.1750   18.2600 C   0  0  0  0  0  0  0  0  0  0  0  0
   14.7700   -6.3080   18.1740 S   0  0  0  0  0  0  0  0  0  0  0  0
  1  2  1  0
  2  3  1  0
  2  4  1  0
  4  5  2  0
  5  6  1  0
  6  7  1  0
  7  8  1  0
  8  9  2  0
  9 10  1  0
 10 11  2  0
 11 12  1  0
  6 13  2  0
 13 14  1  0
 14  4  1  0
 12  8  1  0
M  CHG  1  12  -1
M  END
$$$$
FCG16141527_QVINA2_1
     RDKit          3D

 23 26  0  0  0  0  0  0  0  0999 V2000
   19.3830   -0.7210   15.2360 C   0  0  0  0  0  0  0  0  0  0  0  0
   18.1470   -0.6170   16.0650 C   0  0  0  0  0  0  0  0  0  0  0  0
   17.6380    0.6050   16.3670 N   0  0  0  0  0  0  0  0  0  0  0  0
   16.4830    0.7450   17.0690 C   0  0  0  0  0  0  0  0  0  0  0  0
   15.8760    2.4110   17.3750 S   0  0  0  0  0  0  0  0  0  0  0  0
   15.0380    2.5740   15.7590 C   0  0  0  0  0  0  0  0  0  0  0  0
   14.2930    3.8740   15.6710 C   0  0  0  0  0  0  0  0  0  0  0  0
   14.6440    4.8400   14.7060 C   0  0  0  0  0  0  0  0  0  0  0  0
   13.9720    6.0680   14.7010 C   0  0  0  0  0  0  0  0  0  0  0  0
   14.2740    6.9530   13.8540 O   0  0  0  0  0  0  0  0  0  0  0  0
   12.9950    6.2870   15.6240 N   0  0  0  0  0  0  0  0  0  0  0  0
   12.2470    7.4150   15.7670 C   0  0  0  0  0  0  0  0  0  0  0  0
   11.3230    7.3560   16.8110 C   0  0  0  0  0  0  0  0  0  0  0  0
   11.4560    5.8470   17.5670 S   0  0  0  0  0  0  0  0  0  0  0  0
   12.6760    5.3420   16.5350 C   0  0  0  0  0  0  0  0  0  0  0  0
   13.3110    4.1460   16.5770 N   0  0  0  0  0  0  0  0  0  0  0  0
   15.7920   -0.4050   17.5000 C   0  0  0  0  0  0  0  0  0  0  0  0
   14.5910   -0.3460   18.2340 C   0  0  0  0  0  0  0  0  0  0  0  0
   13.9490   -1.5260   18.6230 C   0  0  0  0  0  0  0  0  0  0  0  0
   14.4910   -2.7680   18.2840 C   0  0  0  0  0  0  0  0  0  0  0  0
   15.6810   -2.8390   17.5550 C   0  0  0  0  0  0  0  0  0  0  0  0
   16.3340   -1.6660   17.1630 C   0  0  0  0  0  0  0  0  0  0  0  0
   17.4880   -1.7400   16.4500 N   0  0  0  0  0  0  0  0  0  0  0  0
  1  2  1  0
  2  3  2  0
  3  4  1  0
  4  5  1  0
  5  6  1  0
  6  7  1  0
  7  8  2  0
  8  9  1  0
  9 10  2  0
  9 11  1  0
 11 12  1  0
 12 13  2  0
 13 14  1  0
 14 15  1  0
 15 16  2  0
  4 17  2  0
 17 18  1  0
 18 19  2  0
 19 20  1  0
 20 21  2  0
 21 22  1  0
 22 23  2  0
 23  2  1  0
 16  7  1  0
 22 17  1  0
 15 11  1  0
M  END
$$$$
FCG16425532_QVINA2_1
     RDKit          3D

 18 19  0  0  0  0  0  0  0  0999 V2000
   14.1850   -6.7230   20.6110 C   0  0  0  0  0  0  0  0  0  0  0  0
   13.0750   -6.6280   19.6650 N   0  0  0  0  0  0  0  0  0  0  0  0
   11.8710   -7.2150   19.8210 C   0  0  0  0  0  0  0  0  0  0  0  0
   11.0640   -6.9330   18.7390 C   0  0  0  0  0  0  0  0  0  0  0  0
   11.8070   -6.1410   17.8860 C   0  0  0  0  0  0  0  0  0  0  0  0
   13.0440   -5.9690   18.4830 C   0  0  0  0  0  0  0  0  0  0  0  0
   14.1500   -5.1840   17.8990 C   0  0  0  0  0  0  0  0  0  0  0  0
   14.7950   -5.6530   16.9210 O   0  0  0  0  0  0  0  0  0  0  0  0
   14.4790   -3.9280   18.4210 O   0  0  0  0  0  0  0  0  0  0  0  0
   14.4870   -2.7320   17.6430 C   0  0  0  0  0  0  0  0  0  0  0  0
   15.8660   -2.1140   17.6430 C   0  0  0  0  0  0  0  0  0  0  0  0
   16.3030   -1.3970   18.7700 C   0  0  0  0  0  0  0  0  0  0  0  0
   17.5660   -0.8000   18.7840 C   0  0  0  0  0  0  0  0  0  0  0  0
   18.4040   -0.9080   17.6740 C   0  0  0  0  0  0  0  0  0  0  0  0
   17.9830   -1.6140   16.5440 C   0  0  0  0  0  0  0  0  0  0  0  0
   16.7170   -2.2170   16.5180 C   0  0  0  0  0  0  0  0  0  0  0  0
   16.3150   -2.9340   15.3320 C   0  0  0  0  0  0  0  0  0  0  0  0
   15.9930   -3.5100   14.3810 N   0  0  0  0  0  0  0  0  0  0  0  0
  1  2  1  0
  2  3  1  0
  3  4  2  0
  4  5  1  0
  5  6  2  0
  6  7  1  0
  7  8  2  0
  7  9  1  0
  9 10  1  0
 10 11  1  0
 11 12  2  0
 12 13  1  0
 13 14  2  0
 14 15  1  0
 15 16  2  0
 16 17  1  0
 17 18  3  0
  6  2  1  0
 16 11  1  0
M  END
$$$$
