FCG16425532_GNINA_9
     RDKit          3D

 18 19  0  0  0  0  0  0  0  0999 V2000
   16.9879    0.9510   16.4639 O   0  0  0  0  0  0  0  0  0  0  0  0
   17.4330   -0.2752   16.9687 C   0  0  0  0  0  0  0  0  0  0  0  0
   16.6291   -1.2394   17.0927 O   0  0  0  0  0  0  0  0  0  0  0  0
   19.8721   -0.5156   15.0428 C   0  0  0  0  0  0  0  0  0  0  0  0
   19.8949   -0.5594   16.5033 N   0  0  0  0  0  0  0  0  0  0  0  0
   21.0026   -0.7062   17.2573 C   0  0  0  0  0  0  0  0  0  0  0  0
   20.6681   -0.6940   18.5956 C   0  0  0  0  0  0  0  0  0  0  0  0
   19.2986   -0.5328   18.6606 C   0  0  0  0  0  0  0  0  0  0  0  0
   18.8472   -0.4548   17.3545 C   0  0  0  0  0  0  0  0  0  0  0  0
   15.6378    1.1999   16.0797 C   0  0  0  0  0  0  0  0  0  0  0  0
   15.0237    2.2500   16.9768 C   0  0  0  0  0  0  0  0  0  0  0  0
   14.9508    1.9869   18.3559 C   0  0  0  0  0  0  0  0  0  0  0  0
   14.3792    2.9158   19.2281 C   0  0  0  0  0  0  0  0  0  0  0  0
   13.8718    4.1181   18.7349 C   0  0  0  0  0  0  0  0  0  0  0  0
   13.9333    4.3953   17.3677 C   0  0  0  0  0  0  0  0  0  0  0  0
   14.5045    3.4709   16.4809 C   0  0  0  0  0  0  0  0  0  0  0  0
   14.5422    3.8010   15.0765 C   0  0  0  0  0  0  0  0  0  0  0  0
   14.5735    4.0655   13.9503 N   0  0  0  0  0  0  0  0  0  0  0  0
  4  5  1  0
  5  6  1  0
  6  7  2  0
  7  8  1  0
  8  9  2  0
  9  2  1  0
  2  3  2  0
  2  1  1  0
  1 10  1  0
 10 11  1  0
 11 12  2  0
 12 13  1  0
 13 14  2  0
 14 15  1  0
 15 16  2  0
 16 17  1  0
 17 18  3  0
  9  5  1  0
 16 11  1  0
M  END
$$$$
FCG16425532_SMINA_8
     RDKit          3D

 18 19  0  0  0  0  0  0  0  0999 V2000
   14.4425   -5.7345   19.4406 O   0  0  0  0  0  0  0  0  0  0  0  0
   13.6845   -6.9089   19.3880 C   0  0  0  0  0  0  0  0  0  0  0  0
   14.1490   -7.9388   18.8267 O   0  0  0  0  0  0  0  0  0  0  0  0
   10.9613   -6.9469   17.8720 C   0  0  0  0  0  0  0  0  0  0  0  0
   11.1647   -6.9707   19.3188 N   0  0  0  0  0  0  0  0  0  0  0  0
   10.1811   -7.0216   20.2392 C   0  0  0  0  0  0  0  0  0  0  0  0
   10.7222   -7.0428   21.5080 C   0  0  0  0  0  0  0  0  0  0  0  0
   12.0936   -7.0030   21.3550 C   0  0  0  0  0  0  0  0  0  0  0  0
   12.3385   -6.9567   19.9936 C   0  0  0  0  0  0  0  0  0  0  0  0
   15.3258   -5.3212   18.4008 C   0  0  0  0  0  0  0  0  0  0  0  0
   15.3929   -3.8124   18.3403 C   0  0  0  0  0  0  0  0  0  0  0  0
   16.6027   -3.1857   18.6871 C   0  0  0  0  0  0  0  0  0  0  0  0
   16.7152   -1.7939   18.6636 C   0  0  0  0  0  0  0  0  0  0  0  0
   15.6215   -1.0099   18.2953 C   0  0  0  0  0  0  0  0  0  0  0  0
   14.4113   -1.6150   17.9501 C   0  0  0  0  0  0  0  0  0  0  0  0
   14.2848   -3.0117   17.9699 C   0  0  0  0  0  0  0  0  0  0  0  0
   13.0131   -3.5902   17.6082 C   0  0  0  0  0  0  0  0  0  0  0  0
   11.9937   -4.0544   17.3172 N   0  0  0  0  0  0  0  0  0  0  0  0
  4  5  1  0
  5  6  1  0
  6  7  2  0
  7  8  1  0
  8  9  2  0
  9  2  1  0
  2  3  2  0
  2  1  1  0
  1 10  1  0
 10 11  1  0
 11 12  2  0
 12 13  1  0
 13 14  2  0
 14 15  1  0
 15 16  2  0
 16 17  1  0
 17 18  3  0
  9  5  1  0
 16 11  1  0
M  END
$$$$
FCG17274676_SMINA_4
     RDKit          3D

 28 31  0  0  0  0  0  0  0  0999 V2000
   16.1314   -1.5150   17.0329 N   0  0  0  0  0  0  0  0  0  0  0  0
   15.3361   -2.7065   16.8275 C   0  0  0  0  0  0  0  0  0  0  0  0
   15.7096   -3.5627   15.9793 O   0  0  0  0  0  0  0  0  0  0  0  0
   17.4303   -1.4337   16.4162 C   0  0  0  0  0  0  0  0  0  0  0  0
   17.5603   -1.7532   15.0570 C   0  0  0  0  0  0  0  0  0  0  0  0
   18.8084   -1.7167   14.4344 C   0  0  0  0  0  0  0  0  0  0  0  0
   19.9465   -1.3628   15.1595 C   0  0  0  0  0  0  0  0  0  0  0  0
   19.8436   -1.0342   16.5188 C   0  0  0  0  0  0  0  0  0  0  0  0
   20.9880   -0.6736   17.2479 C   0  0  0  0  0  0  0  0  0  0  0  0
   20.8837   -0.3365   18.5991 C   0  0  0  0  0  0  0  0  0  0  0  0
   19.6397   -0.3501   19.2314 C   0  0  0  0  0  0  0  0  0  0  0  0
   18.4928   -0.7060   18.5188 C   0  0  0  0  0  0  0  0  0  0  0  0
   18.5770   -1.0626   17.1591 C   0  0  0  0  0  0  0  0  0  0  0  0
   15.7261    0.9169   16.9235 C   0  0  0  0  0  0  0  0  0  0  0  0
   15.6402   -0.3445   17.7771 C   0  0  0  0  0  0  0  0  0  0  0  0
   14.0684   -2.9756   17.5945 C   0  0  0  0  0  0  0  0  0  0  0  0
   13.4380   -4.1708   17.1353 O   0  0  0  0  0  0  0  0  0  0  0  0
   13.4027   -5.3884   17.8352 C   0  0  0  0  0  0  0  0  0  0  0  0
   14.5543   -6.1614   18.0714 C   0  0  0  0  0  0  0  0  0  0  0  0
   14.4666   -7.3441   18.8067 C   0  0  0  0  0  0  0  0  0  0  0  0
   13.2357   -7.7737   19.3067 C   0  0  0  0  0  0  0  0  0  0  0  0
   12.0692   -7.0231   19.0694 C   0  0  0  0  0  0  0  0  0  0  0  0
   12.1688   -5.8336   18.3247 C   0  0  0  0  0  0  0  0  0  0  0  0
   10.7889   -7.4485   19.5784 N   0  0  0  0  0  0  0  0  0  0  0  0
    9.6774   -6.7196   19.7962 C   0  0  0  0  0  0  0  0  0  0  0  0
    8.7008   -7.5111   20.2767 N   0  0  0  0  0  0  0  0  0  0  0  0
    9.2336   -8.7229   20.3462 N   0  0  0  0  0  0  0  0  0  0  0  0
   10.4887   -8.6882   19.9269 N   0  0  0  0  0  0  0  0  0  0  0  0
 14 15  1  0
 15  1  1  0
  1  2  1  0
  2  3  2  0
  2 16  1  0
 16 17  1  0
 17 18  1  0
 18 19  2  0
 19 20  1  0
 20 21  2  0
 21 22  1  0
 22 24  1  0
 24 25  1  0
 25 26  2  0
 26 27  1  0
 27 28  2  0
 22 23  2  0
  1  4  1  0
  4  5  2  0
  5  6  1  0
  6  7  2  0
  7  8  1  0
  8  9  2  0
  9 10  1  0
 10 11  2  0
 11 12  1  0
 12 13  2  0
 23 18  1  0
 13  4  1  0
 28 24  1  0
 13  8  1  0
M  END
$$$$
FCG16600623_SMINA_2
     RDKit          3D

 24 27  0  0  0  0  0  0  0  0999 V2000
   15.3281   -5.6635   19.2020 C   0  0  0  0  0  0  0  0  0  0  0  0
   14.5263   -6.2290   18.0408 C   0  0  1  0  0  0  0  0  0  0  0  0
   13.1353   -6.4885   18.4125 C   0  0  0  0  0  0  0  0  0  0  0  0
   12.7926   -6.5267   19.7103 N   0  0  0  0  0  0  0  0  0  0  0  0
   11.5451   -6.7574   20.1416 C   0  0  0  0  0  0  0  0  0  0  0  0
   11.2321   -6.7887   21.5018 C   0  0  0  0  0  0  0  0  0  0  0  0
    9.9372   -7.0291   21.9020 C   0  0  0  0  0  0  0  0  0  0  0  0
    8.9735   -7.2348   20.9455 C   0  0  0  0  0  0  0  0  0  0  0  0
    9.2655   -7.2073   19.5997 C   0  0  0  0  0  0  0  0  0  0  0  0
   10.5712   -6.9650   19.1925 C   0  0  0  0  0  0  0  0  0  0  0  0
   10.9205   -6.9261   17.8589 C   0  0  0  0  0  0  0  0  0  0  0  0
   10.0280   -7.1161   16.9969 O   0  0  0  0  0  0  0  0  0  0  0  0
   12.1720   -6.6937   17.4694 N   0  0  0  0  0  0  0  0  0  0  0  0
   14.5749   -5.2240   17.0164 O   0  0  0  0  0  0  0  0  0  0  0  0
   14.4065   -3.8910   17.2932 C   0  0  0  0  0  0  0  0  0  0  0  0
   13.2454   -3.4706   17.5116 O   0  0  0  0  0  0  0  0  0  0  0  0
   15.5538   -2.9508   17.3385 C   0  0  0  0  0  0  0  0  0  0  0  0
   16.0999   -2.3159   18.3808 C   0  0  0  0  0  0  0  0  0  0  0  0
   17.1606   -1.4925   18.1720 C   0  0  0  0  0  0  0  0  0  0  0  0
   17.6164   -1.3547   16.9082 C   0  0  0  0  0  0  0  0  0  0  0  0
   16.5095   -2.4237   15.9782 S   0  0  0  0  0  0  0  0  0  0  0  0
   18.7832   -0.4389   16.8233 C   0  0  0  0  0  0  0  0  0  0  0  0
   19.3463   -0.6510   18.2387 C   0  0  0  0  0  0  0  0  0  0  0  0
   18.0576   -0.5926   19.0202 C   0  0  0  0  0  0  0  0  0  0  0  0
  2  1  1  1
  2 14  1  0
 14 15  1  0
 15 16  2  0
 15 17  1  0
 17 18  2  0
 18 19  1  0
 19 20  2  0
 20 21  1  0
 20 22  1  0
 22 23  1  0
 23 24  1  0
  2  3  1  0
  3  4  2  0
  4  5  1  0
  5  6  2  0
  6  7  1  0
  7  8  2  0
  8  9  1  0
  9 10  2  0
 10 11  1  0
 11 12  2  0
 11 13  1  0
 21 17  1  0
 13  3  1  0
 24 19  1  0
 10  5  1  0
M  END
$$$$
FCG1390566_SMINA_2
     RDKit          3D

 14 15  0  0  0  0  0  0  0  0999 V2000
   14.7163   -3.5169   18.2656 C   0  0  0  0  0  0  0  0  0  0  0  0
   14.2998   -4.3516   19.2437 N   0  0  0  0  0  0  0  0  0  0  0  0
   13.9951   -5.5863   18.7594 C   0  0  0  0  0  0  0  0  0  0  0  0
   14.1845   -5.7492   17.3884 C   0  0  0  0  0  0  0  0  0  0  0  0
   14.7345   -4.2870   16.7662 S   0  0  0  0  0  0  0  0  0  0  0  0
   16.5229   -1.8106   18.5872 C   0  0  0  0  0  0  0  0  0  0  0  0
   15.1004   -2.1507   18.5033 N   0  0  0  0  0  0  0  0  0  0  0  0
   14.0738   -1.1167   18.6588 C   0  0  0  0  0  0  0  0  0  0  0  0
   13.5565   -6.6975   19.6603 C   0  0  0  0  0  0  0  0  0  0  0  0
   12.0982   -6.9605   19.4724 C   0  0  0  0  0  0  0  0  0  0  0  0
   11.2186   -6.0559   19.0072 N   0  0  0  0  0  0  0  0  0  0  0  0
   10.0719   -6.7118   18.9384 N   0  0  0  0  0  0  0  0  0  0  0  0
   10.2465   -7.9630   19.3339 N   0  0  0  0  0  0  0  0  0  0  0  0
   11.5116   -8.1542   19.6702 N   0  0  0  0  0  0  0  0  0  0  0  0
  6  7  1  0
  7  8  1  0
  7  1  1  0
  1  2  2  0
  2  3  1  0
  3  9  1  0
  9 10  1  0
 10 11  2  0
 11 12  1  0
 12 13  2  0
 13 14  1  0
  3  4  2  0
  4  5  1  0
  5  1  1  0
 14 10  1  0
M  CHG  1  14  -1
M  END
$$$$
FCG18472628_SMINA_2
     RDKit          3D

 24 26  0  0  0  0  0  0  0  0999 V2000
   14.7253   -3.8991   16.3378 C   0  0  0  0  0  0  0  0  0  0  0  0
   14.2193   -5.0223   17.0952 N   0  0  0  0  0  0  0  0  0  0  0  0
   14.7308   -6.2490   17.1176 N   0  0  0  0  0  0  0  0  0  0  0  0
   14.0070   -7.0222   17.9229 N   0  0  0  0  0  0  0  0  0  0  0  0
   13.0112   -6.2835   18.4297 C   0  0  0  0  0  0  0  0  0  0  0  0
   13.1589   -5.0539   17.9077 N   0  0  0  0  0  0  0  0  0  0  0  0
   11.9559   -6.6685   19.3562 C   0  0  0  0  0  0  0  0  0  0  0  0
   10.6677   -6.8853   18.9150 C   0  0  0  0  0  0  0  0  0  0  0  0
    9.6722   -7.2468   19.7796 C   0  0  0  0  0  0  0  0  0  0  0  0
    9.9349   -7.4039   21.1201 C   0  0  0  0  0  0  0  0  0  0  0  0
   11.2245   -7.1958   21.6173 C   0  0  0  0  0  0  0  0  0  0  0  0
   12.1832   -6.8348   20.7049 C   0  0  0  0  0  0  0  0  0  0  0  0
   13.9680   -6.5349   21.3188 Br  0  0  0  0  0  0  0  0  0  0  0  0
   16.5814   -2.1710   16.5659 N   0  0  0  0  0  0  0  0  0  0  0  0
   15.7251   -3.1782   17.1286 C   0  0  0  0  0  0  0  0  0  0  0  0
   15.8393   -3.4554   18.3627 O   0  0  0  0  0  0  0  0  0  0  0  0
   20.5191   -1.3473   17.5587 C   0  0  0  0  0  0  0  0  0  0  0  0
   19.5231   -0.1938   17.6187 C   0  0  2  0  0  0  0  0  0  0  0  0
   19.1587    0.1217   19.0147 C   0  0  0  0  0  0  0  0  0  0  0  0
   17.9204   -0.4746   19.5439 C   0  0  0  0  0  0  0  0  0  0  0  0
   16.8454   -0.7374   18.5411 C   0  0  0  0  0  0  0  0  0  0  0  0
   17.5161   -1.5298   17.4097 C   0  0  2  0  0  0  0  0  0  0  0  0
   18.3957   -0.5212   16.7048 C   0  0  2  0  0  0  0  0  0  0  0  0
   18.9298   -1.0564   15.4002 C   0  0  0  0  0  0  0  0  0  0  0  0
 18 17  1  1
 18 19  1  0
 19 20  1  0
 20 21  1  0
 21 22  1  0
 22 14  1  6
 14 15  1  0
 15 16  2  0
 15  1  1  0
  1  2  1  0
  2  3  1  0
  3  4  2  0
  4  5  1  0
  5  7  1  0
  7  8  2  0
  8  9  1  0
  9 10  2  0
 10 11  1  0
 11 12  2  0
 12 13  1  0
  5  6  2  0
 22 23  1  0
 23 24  1  6
 23 18  1  0
  6  2  1  0
 12  7  1  0
M  END
$$$$
FCG16141527_SMINA_4
     RDKit          3D

 23 26  0  0  0  0  0  0  0  0999 V2000
   14.4449   -5.7877   17.6254 S   0  0  0  0  0  0  0  0  0  0  0  0
   14.9562   -6.6123   22.7068 C   0  0  0  0  0  0  0  0  0  0  0  0
   14.0357   -6.5821   21.5332 C   0  0  0  0  0  0  0  0  0  0  0  0
   14.5065   -6.2222   20.3107 N   0  0  0  0  0  0  0  0  0  0  0  0
   13.7076   -6.2192   19.2117 C   0  0  0  0  0  0  0  0  0  0  0  0
   12.3529   -6.5901   19.3382 C   0  0  0  0  0  0  0  0  0  0  0  0
   11.4542   -6.5939   18.2538 C   0  0  0  0  0  0  0  0  0  0  0  0
   10.1387   -7.0310   18.4333 C   0  0  0  0  0  0  0  0  0  0  0  0
    9.7023   -7.4515   19.6920 C   0  0  0  0  0  0  0  0  0  0  0  0
   10.5772   -7.4302   20.7811 C   0  0  0  0  0  0  0  0  0  0  0  0
   11.8980   -6.9997   20.6115 C   0  0  0  0  0  0  0  0  0  0  0  0
   12.7467   -6.9869   21.6712 N   0  0  0  0  0  0  0  0  0  0  0  0
   13.4443   -4.2737   17.3867 C   0  0  0  0  0  0  0  0  0  0  0  0
   14.2634   -3.0461   17.6495 C   0  0  0  0  0  0  0  0  0  0  0  0
   15.6700   -3.0996   17.5988 C   0  0  0  0  0  0  0  0  0  0  0  0
   16.4041   -1.9651   17.9683 C   0  0  0  0  0  0  0  0  0  0  0  0
   17.6645   -1.9901   17.9428 O   0  0  0  0  0  0  0  0  0  0  0  0
   15.7335   -0.8475   18.3644 N   0  0  0  0  0  0  0  0  0  0  0  0
   16.2806    0.3265   18.7841 C   0  0  0  0  0  0  0  0  0  0  0  0
   15.3422    1.2902   19.1527 C   0  0  0  0  0  0  0  0  0  0  0  0
   13.7905    0.6456   18.9452 S   0  0  0  0  0  0  0  0  0  0  0  0
   14.3840   -0.8211   18.3926 C   0  0  0  0  0  0  0  0  0  0  0  0
   13.6415   -1.8995   18.0467 N   0  0  0  0  0  0  0  0  0  0  0  0
  2  3  1  0
  3  4  2  0
  4  5  1  0
  5  1  1  0
  1 13  1  0
 13 14  1  0
 14 15  2  0
 15 16  1  0
 16 17  2  0
 16 18  1  0
 18 19  1  0
 19 20  2  0
 20 21  1  0
 21 22  1  0
 22 23  2  0
  5  6  2  0
  6  7  1  0
  7  8  2  0
  8  9  1  0
  9 10  2  0
 10 11  1  0
 11 12  2  0
 12  3  1  0
 23 14  1  0
 11  6  1  0
 22 18  1  0
M  END
$$$$
FCG17585042_SMINA_2
     RDKit          3D

 25 28  0  0  0  0  0  0  0  0999 V2000
   16.5371   -2.6640   15.3408 C   0  0  0  0  0  0  0  0  0  0  0  0
   15.8316   -2.3383   16.5789 N   0  0  0  0  0  0  0  0  0  0  0  0
   15.9013   -1.2015   17.3013 C   0  0  0  0  0  0  0  0  0  0  0  0
   15.1959   -1.3028   18.4449 N   0  0  0  0  0  0  0  0  0  0  0  0
   14.6603   -2.5149   18.4654 N   0  0  0  0  0  0  0  0  0  0  0  0
   15.0508   -3.1344   17.3362 C   0  0  0  0  0  0  0  0  0  0  0  0
   16.6887    0.0189   16.9236 C   0  0  0  0  0  0  0  0  0  0  0  0
   18.1648   -0.2225   17.0926 C   0  0  0  0  0  0  0  0  0  0  0  0
   18.7175   -0.4001   18.3725 C   0  0  0  0  0  0  0  0  0  0  0  0
   20.0906   -0.6168   18.5232 C   0  0  0  0  0  0  0  0  0  0  0  0
   20.9208   -0.6597   17.3999 C   0  0  0  0  0  0  0  0  0  0  0  0
   20.3794   -0.4860   16.1230 C   0  0  0  0  0  0  0  0  0  0  0  0
   19.0067   -0.2693   15.9677 C   0  0  0  0  0  0  0  0  0  0  0  0
   14.5595   -4.8092   16.9098 S   0  0  0  0  0  0  0  0  0  0  0  0
   15.2678   -5.5642   18.4156 C   0  0  0  0  0  0  0  0  0  0  0  0
   14.1858   -6.0889   19.3045 C   0  0  0  0  0  0  0  0  0  0  0  0
   12.9195   -6.2458   18.8147 N   0  0  0  0  0  0  0  0  0  0  0  0
   11.9292   -6.6592   19.6446 C   0  0  0  0  0  0  0  0  0  0  0  0
   10.5964   -6.8505   19.2776 C   0  0  0  0  0  0  0  0  0  0  0  0
    9.8066   -7.2652   20.3505 C   0  0  0  0  0  0  0  0  0  0  0  0
   10.7702   -7.3873   21.7393 S   0  0  0  0  0  0  0  0  0  0  0  0
   12.1872   -6.9148   20.9733 C   0  0  0  0  0  0  0  0  0  0  0  0
   13.4708   -6.7528   21.4765 C   0  0  0  0  0  0  0  0  0  0  0  0
   13.7300   -6.9742   22.6883 O   0  0  0  0  0  0  0  0  0  0  0  0
   14.4496   -6.3375   20.6255 N   0  0  0  0  0  0  0  0  0  0  0  0
  1  2  1  0
  2  3  1  0
  3  7  1  0
  7  8  1  0
  8  9  2  0
  9 10  1  0
 10 11  2  0
 11 12  1  0
 12 13  2  0
  3  4  2  0
  4  5  1  0
  5  6  2  0
  6 14  1  0
 14 15  1  0
 15 16  1  0
 16 17  2  0
 17 18  1  0
 18 19  1  0
 19 20  2  0
 20 21  1  0
 21 22  1  0
 22 23  1  0
 23 24  2  0
 23 25  1  0
  6  2  1  0
 25 16  1  0
 13  8  1  0
 22 18  2  0
M  CHG  1  25  -1
M  END
$$$$
FCG16952409_SMINA_3
     RDKit          3D

 26 28  0  0  0  0  0  0  0  0999 V2000
   13.8475   -2.5008   17.6001 C   0  0  0  0  0  0  0  0  0  0  0  0
   14.3770   -3.7359   18.1207 C   0  0  0  0  0  0  0  0  0  0  0  0
   15.5313   -3.6834   18.6779 O   0  0  0  0  0  0  0  0  0  0  0  0
   12.1501   -6.5370   17.9587 C   0  0  0  0  0  0  0  0  0  0  0  0
   13.3292   -7.2194   18.0943 C   0  0  0  0  0  0  0  0  0  0  0  0
   14.3515   -6.2603   18.1734 C   0  0  0  0  0  0  0  0  0  0  0  0
   13.7403   -5.0347   18.0835 C   0  0  0  0  0  0  0  0  0  0  0  0
   12.4361   -5.2637   17.9573 O   0  0  0  0  0  0  0  0  0  0  0  0
   10.7668   -7.1329   17.8313 C   0  0  0  0  0  0  0  0  0  0  0  0
    8.9479   -7.0445   21.2003 C   0  0  0  0  0  0  0  0  0  0  0  0
    9.7512   -7.5843   20.0633 C   0  0  0  0  0  0  0  0  0  0  0  0
   10.1627   -8.7638   20.1084 O   0  0  0  0  0  0  0  0  0  0  0  0
   10.0099   -6.7286   18.9810 N   0  0  0  0  0  0  0  0  0  0  0  0
   13.5766   -1.4542   18.4785 O   0  0  0  0  0  0  0  0  0  0  0  0
   14.3499   -0.3229   18.6122 C   0  0  0  0  0  0  0  0  0  0  0  0
   13.8380    0.7170   19.0594 O   0  0  0  0  0  0  0  0  0  0  0  0
   15.7778   -0.2782   18.2469 C   0  0  0  0  0  0  0  0  0  0  0  0
   16.3741   -0.1003   17.0795 C   0  0  0  0  0  0  0  0  0  0  0  0
   17.7252   -0.1011   17.0088 C   0  0  0  0  0  0  0  0  0  0  0  0
   18.4155   -0.2867   18.1538 C   0  0  0  0  0  0  0  0  0  0  0  0
   17.1309   -0.4646   19.3602 S   0  0  0  0  0  0  0  0  0  0  0  0
   19.8203   -0.3689   18.6034 C   0  0  0  0  0  0  0  0  0  0  0  0
   20.6457   -1.1808   17.6377 C   0  0  0  0  0  0  0  0  0  0  0  0
   20.7008   -0.4673   16.3094 C   0  0  0  0  0  0  0  0  0  0  0  0
   19.5180   -0.9065   15.4926 C   0  0  0  0  0  0  0  0  0  0  0  0
   18.4195    0.1059   15.6528 C   0  0  0  0  0  0  0  0  0  0  0  0
 10 11  1  0
 11 12  2  0
 11 13  1  0
 13  9  1  0
  9  4  1  0
  4  5  2  0
  5  6  1  0
  6  7  2  0
  7  2  1  0
  2  3  2  0
  2  1  1  0
  1 14  1  0
 14 15  1  0
 15 16  2  0
 15 17  1  0
 17 18  2  0
 18 19  1  0
 19 20  2  0
 20 21  1  0
 20 22  1  0
 22 23  1  0
 23 24  1  0
 24 25  1  0
 25 26  1  0
  7  8  1  0
  8  4  1  0
 21 17  1  0
 26 19  1  0
M  END
$$$$
FCG17274676_QVINAW_9
     RDKit          3D

 28 31  0  0  0  0  0  0  0  0999 V2000
   11.7670    5.3950   17.0810 C   0  0  0  0  0  0  0  0  0  0  0  0
   12.0850    4.1670   16.2330 C   0  0  0  0  0  0  0  0  0  0  0  0
   13.2500    4.4140   15.3700 N   0  0  0  0  0  0  0  0  0  0  0  0
   14.5720    3.9070   15.6680 C   0  0  0  0  0  0  0  0  0  0  0  0
   15.2010    3.2580   14.7880 O   0  0  0  0  0  0  0  0  0  0  0  0
   15.2420    4.1290   16.9980 C   0  0  0  0  0  0  0  0  0  0  0  0
   14.7080    3.2540   17.9920 O   0  0  0  0  0  0  0  0  0  0  0  0
   15.0330    1.8960   18.1340 C   0  0  0  0  0  0  0  0  0  0  0  0
   14.0580    0.8980   18.3200 C   0  0  0  0  0  0  0  0  0  0  0  0
   14.4360   -0.4420   18.4160 C   0  0  0  0  0  0  0  0  0  0  0  0
   15.7820   -0.8030   18.3350 C   0  0  0  0  0  0  0  0  0  0  0  0
   16.7740    0.1810   18.1630 C   0  0  0  0  0  0  0  0  0  0  0  0
   18.1690   -0.1720   18.0760 N   0  0  0  0  0  0  0  0  0  0  0  0
   18.9330   -0.3520   16.9810 C   0  0  0  0  0  0  0  0  0  0  0  0
   20.1880   -0.6700   17.3490 N   0  0  0  0  0  0  0  0  0  0  0  0
   20.1740   -0.6800   18.6740 N   0  0  0  0  0  0  0  0  0  0  0  0
   18.9620   -0.3790   19.1140 N   0  0  0  0  0  0  0  0  0  0  0  0
   16.3820    1.5290   18.0700 C   0  0  0  0  0  0  0  0  0  0  0  0
   13.0430    5.1230   14.1330 C   0  0  0  0  0  0  0  0  0  0  0  0
   13.3690    6.4860   14.0660 C   0  0  0  0  0  0  0  0  0  0  0  0
   13.1520    7.2120   12.8940 C   0  0  0  0  0  0  0  0  0  0  0  0
   12.6040    6.5890   11.7730 C   0  0  0  0  0  0  0  0  0  0  0  0
   12.2730    5.2260   11.8110 C   0  0  0  0  0  0  0  0  0  0  0  0
   11.7270    4.5990   10.6800 C   0  0  0  0  0  0  0  0  0  0  0  0
   11.4080    3.2400   10.7160 C   0  0  0  0  0  0  0  0  0  0  0  0
   11.6370    2.4960   11.8750 C   0  0  0  0  0  0  0  0  0  0  0  0
   12.1810    3.1070   13.0070 C   0  0  0  0  0  0  0  0  0  0  0  0
   12.4960    4.4790   12.9970 C   0  0  0  0  0  0  0  0  0  0  0  0
  1  2  1  0
  2  3  1  0
  3  4  1  0
  4  5  2  0
  4  6  1  0
  6  7  1  0
  7  8  1  0
  8  9  2  0
  9 10  1  0
 10 11  2  0
 11 12  1  0
 12 13  1  0
 13 14  1  0
 14 15  2  0
 15 16  1  0
 16 17  2  0
 12 18  2  0
  3 19  1  0
 19 20  2  0
 20 21  1  0
 21 22  2  0
 22 23  1  0
 23 24  2  0
 24 25  1  0
 25 26  2  0
 26 27  1  0
 27 28  2  0
 18  8  1  0
 28 19  1  0
 17 13  1  0
 28 23  1  0
M  END
$$$$
FCG18472628_QVINAW_8
     RDKit          3D

 24 26  0  0  0  0  0  0  0  0999 V2000
   14.3240    7.4920   14.0870 C   0  0  0  0  0  0  0  0  0  0  0  0
   13.0960    6.7200   13.6730 C   0  0  2  0  0  0  0  0  0  0  0  0
   11.8890    7.5800   13.8030 C   0  0  2  0  0  0  0  0  0  0  0  0
   11.9800    8.3090   15.1400 C   0  0  0  0  0  0  0  0  0  0  0  0
   10.5870    6.8990   13.6560 C   0  0  0  0  0  0  0  0  0  0  0  0
   10.5250    5.4700   14.0070 C   0  0  0  0  0  0  0  0  0  0  0  0
   11.7880    4.6980   13.8140 C   0  0  0  0  0  0  0  0  0  0  0  0
   12.8810    5.4980   14.5370 C   0  0  1  0  0  0  0  0  0  0  0  0
   14.0500    4.7390   14.7660 N   0  0  0  0  0  0  0  0  0  0  0  0
   14.6150    4.7300   16.0870 C   0  0  0  0  0  0  0  0  0  0  0  0
   14.0450    5.4030   16.9990 O   0  0  0  0  0  0  0  0  0  0  0  0
   15.8240    3.9740   16.4250 C   0  0  0  0  0  0  0  0  0  0  0  0
   15.4830    2.8670   17.2910 N   0  0  0  0  0  0  0  0  0  0  0  0
   14.9060    2.9540   18.4860 N   0  0  0  0  0  0  0  0  0  0  0  0
   14.7430    1.7360   18.9950 N   0  0  0  0  0  0  0  0  0  0  0  0
   15.2220    0.8460   18.1150 C   0  0  0  0  0  0  0  0  0  0  0  0
   15.2750   -0.6060   18.2060 C   0  0  0  0  0  0  0  0  0  0  0  0
   14.1460   -1.3720   18.0090 C   0  0  0  0  0  0  0  0  0  0  0  0
   14.1890   -2.7350   18.0940 C   0  0  0  0  0  0  0  0  0  0  0  0
   15.3690   -3.3810   18.3800 C   0  0  0  0  0  0  0  0  0  0  0  0
   16.5420   -2.6490   18.5880 C   0  0  0  0  0  0  0  0  0  0  0  0
   16.4400   -1.2850   18.4910 C   0  0  0  0  0  0  0  0  0  0  0  0
   18.0070   -0.2250   18.7640 Br  0  0  0  0  0  0  0  0  0  0  0  0
   15.6740    1.5640   17.0720 N   0  0  0  0  0  0  0  0  0  0  0  0
  2  1  1  1
  2  3  1  0
  3  4  1  1
  3  5  1  0
  5  6  1  0
  6  7  1  0
  7  8  1  0
  8  9  1  6
  9 10  1  0
 10 11  2  0
 10 12  1  0
 12 13  1  0
 13 14  1  0
 14 15  2  0
 15 16  1  0
 16 17  1  0
 17 18  2  0
 18 19  1  0
 19 20  2  0
 20 21  1  0
 21 22  2  0
 22 23  1  0
 16 24  2  0
  8  2  1  0
 24 13  1  0
 22 17  1  0
M  END
$$$$
FCG16141527_QVINAW_9
     RDKit          3D

 23 26  0  0  0  0  0  0  0  0999 V2000
   13.4680    2.3830   12.0210 C   0  0  0  0  0  0  0  0  0  0  0  0
   13.5790    3.5120   12.9900 C   0  0  0  0  0  0  0  0  0  0  0  0
   14.0300    3.2820   14.2520 N   0  0  0  0  0  0  0  0  0  0  0  0
   14.1800    4.2890   15.1500 C   0  0  0  0  0  0  0  0  0  0  0  0
   14.8460    3.8860   16.7750 S   0  0  0  0  0  0  0  0  0  0  0  0
   16.2760    2.9390   16.1360 C   0  0  0  0  0  0  0  0  0  0  0  0
   16.2650    1.5350   16.6630 C   0  0  0  0  0  0  0  0  0  0  0  0
   17.2670    0.6220   16.2850 C   0  0  0  0  0  0  0  0  0  0  0  0
   17.1580   -0.7120   16.6990 C   0  0  0  0  0  0  0  0  0  0  0  0
   18.0360   -1.5540   16.3640 O   0  0  0  0  0  0  0  0  0  0  0  0
   16.0850   -1.0820   17.4530 N   0  0  0  0  0  0  0  0  0  0  0  0
   15.8040   -2.3320   17.9140 C   0  0  0  0  0  0  0  0  0  0  0  0
   14.6170   -2.4130   18.6430 C   0  0  0  0  0  0  0  0  0  0  0  0
   13.9100   -0.8760   18.7050 S   0  0  0  0  0  0  0  0  0  0  0  0
   15.1450   -0.1810   17.8110 C   0  0  0  0  0  0  0  0  0  0  0  0
   15.2150    1.1150   17.4260 N   0  0  0  0  0  0  0  0  0  0  0  0
   13.8550    5.6090   14.7730 C   0  0  0  0  0  0  0  0  0  0  0  0
   13.9640    6.7060   15.6500 C   0  0  0  0  0  0  0  0  0  0  0  0
   13.6840    7.9980   15.1960 C   0  0  0  0  0  0  0  0  0  0  0  0
   13.2800    8.2070   13.8750 C   0  0  0  0  0  0  0  0  0  0  0  0
   13.1460    7.1260   13.0020 C   0  0  0  0  0  0  0  0  0  0  0  0
   13.4280    5.8290   13.4440 C   0  0  0  0  0  0  0  0  0  0  0  0
   13.3030    4.7800   12.5900 N   0  0  0  0  0  0  0  0  0  0  0  0
  1  2  1  0
  2  3  2  0
  3  4  1  0
  4  5  1  0
  5  6  1  0
  6  7  1  0
  7  8  2  0
  8  9  1  0
  9 10  2  0
  9 11  1  0
 11 12  1  0
 12 13  2  0
 13 14  1  0
 14 15  1  0
 15 16  2  0
  4 17  2  0
 17 18  1  0
 18 19  2  0
 19 20  1  0
 20 21  2  0
 21 22  1  0
 22 23  2  0
 23  2  1  0
 16  7  1  0
 22 17  1  0
 15 11  1  0
M  END
$$$$
FCG16600623_QVINAW_9
     RDKit          3D

 24 27  0  0  0  0  0  0  0  0999 V2000
   12.7010    4.9710   16.9120 C   0  0  0  0  0  0  0  0  0  0  0  0
   12.9920    3.5260   16.5400 C   0  0  2  0  0  0  0  0  0  0  0  0
   14.3740    3.3180   16.8700 O   0  0  0  0  0  0  0  0  0  0  0  0
   14.7650    2.4590   17.8660 C   0  0  0  0  0  0  0  0  0  0  0  0
   14.1070    2.4460   18.9330 O   0  0  0  0  0  0  0  0  0  0  0  0
   15.9330    1.5570   17.7060 C   0  0  0  0  0  0  0  0  0  0  0  0
   16.5290    1.1180   16.5930 C   0  0  0  0  0  0  0  0  0  0  0  0
   17.6000    0.2870   16.7000 C   0  0  0  0  0  0  0  0  0  0  0  0
   18.0130   -0.0570   17.9390 C   0  0  0  0  0  0  0  0  0  0  0  0
   16.8510    0.8220   18.9940 S   0  0  0  0  0  0  0  0  0  0  0  0
   19.1960   -0.9560   17.9130 C   0  0  0  0  0  0  0  0  0  0  0  0
   19.8040   -0.4960   16.5770 C   0  0  0  0  0  0  0  0  0  0  0  0
   18.5460   -0.4420   15.7480 C   0  0  0  0  0  0  0  0  0  0  0  0
   12.7810    3.2750   15.1150 C   0  0  0  0  0  0  0  0  0  0  0  0
   11.5650    2.9060   14.6800 N   0  0  0  0  0  0  0  0  0  0  0  0
   11.2820    2.6560   13.3950 C   0  0  0  0  0  0  0  0  0  0  0  0
   10.0020    2.2730   12.9860 C   0  0  0  0  0  0  0  0  0  0  0  0
    9.7540    2.0260   11.6550 C   0  0  0  0  0  0  0  0  0  0  0  0
   10.7780    2.1620   10.7500 C   0  0  0  0  0  0  0  0  0  0  0  0
   12.0450    2.5390   11.1370 C   0  0  0  0  0  0  0  0  0  0  0  0
   12.3000    2.7890   12.4790 C   0  0  0  0  0  0  0  0  0  0  0  0
   13.5490    3.1690   12.9230 C   0  0  0  0  0  0  0  0  0  0  0  0
   14.4760    3.2890   12.0840 O   0  0  0  0  0  0  0  0  0  0  0  0
   13.7930    3.4080   14.2090 N   0  0  0  0  0  0  0  0  0  0  0  0
  2  1  1  6
  2  3  1  0
  3  4  1  0
  4  5  2  0
  4  6  1  0
  6  7  2  0
  7  8  1  0
  8  9  2  0
  9 10  1  0
  9 11  1  0
 11 12  1  0
 12 13  1  0
  2 14  1  0
 14 15  2  0
 15 16  1  0
 16 17  2  0
 17 18  1  0
 18 19  2  0
 19 20  1  0
 20 21  2  0
 21 22  1  0
 22 23  2  0
 22 24  1  0
 10  6  1  0
 24 14  1  0
 13  8  1  0
 21 16  1  0
M  END
$$$$
FCG1390566_QVINAW_10
     RDKit          3D

 14 15  0  0  0  0  0  0  0  0999 V2000
   13.7630    2.3070   17.2410 C   0  0  0  0  0  0  0  0  0  0  0  0
   14.3840    1.4460   18.2490 N   0  0  0  0  0  0  0  0  0  0  0  0
   14.1790    1.6990   19.6790 C   0  0  0  0  0  0  0  0  0  0  0  0
   15.2010    0.3410   17.8240 C   0  0  0  0  0  0  0  0  0  0  0  0
   16.3870    0.4940   17.1950 N   0  0  0  0  0  0  0  0  0  0  0  0
   16.9620   -0.7030   16.9010 C   0  0  0  0  0  0  0  0  0  0  0  0
   18.2600   -0.7910   16.1600 C   0  0  0  0  0  0  0  0  0  0  0  0
   19.4010   -0.6840   17.1180 C   0  0  0  0  0  0  0  0  0  0  0  0
   19.2770   -0.7520   18.4550 N   0  0  0  0  0  0  0  0  0  0  0  0
   20.5180   -0.6790   18.9080 N   0  0  0  0  0  0  0  0  0  0  0  0
   21.3620   -0.5820   17.8920 N   0  0  0  0  0  0  0  0  0  0  0  0
   20.6910   -0.5900   16.7510 N   0  0  0  0  0  2  0  0  0  0  0  0
   16.2260   -1.8250   17.2800 C   0  0  0  0  0  0  0  0  0  0  0  0
   14.8180   -1.2880   18.0250 S   0  0  0  0  0  0  0  0  0  0  0  0
  1  2  1  0
  2  3  1  0
  2  4  1  0
  4  5  2  0
  5  6  1  0
  6  7  1  0
  7  8  1  0
  8  9  2  0
  9 10  1  0
 10 11  2  0
 11 12  1  0
  6 13  2  0
 13 14  1  0
 14  4  1  0
 12  8  1  0
M  CHG  1  12  -1
M  END
$$$$
FCG17585042_QVINAW_9
     RDKit          3D

 25 28  0  0  0  0  0  0  0  0999 V2000
   11.2430    2.8880   14.3730 C   0  0  0  0  0  0  0  0  0  0  0  0
   12.5300    3.4130   13.9180 N   0  0  0  0  0  0  0  0  0  0  0  0
   13.1640    3.1630   12.7540 C   0  0  0  0  0  0  0  0  0  0  0  0
   12.6210    2.3270   11.6320 C   0  0  0  0  0  0  0  0  0  0  0  0
   11.5150    3.0490   10.9120 C   0  0  0  0  0  0  0  0  0  0  0  0
   10.3320    2.3760   10.5590 C   0  0  0  0  0  0  0  0  0  0  0  0
    9.3120    3.0520    9.8830 C   0  0  0  0  0  0  0  0  0  0  0  0
    9.4620    4.4020    9.5560 C   0  0  0  0  0  0  0  0  0  0  0  0
   10.6330    5.0800    9.9050 C   0  0  0  0  0  0  0  0  0  0  0  0
   11.6570    4.4090   10.5810 C   0  0  0  0  0  0  0  0  0  0  0  0
   14.3840    3.7340   12.7280 N   0  0  0  0  0  0  0  0  0  0  0  0
   14.5440    4.3630   13.8830 N   0  0  0  0  0  0  0  0  0  0  0  0
   13.4210    4.1620   14.5970 C   0  0  0  0  0  0  0  0  0  0  0  0
   13.1620    4.8380   16.2410 S   0  0  0  0  0  0  0  0  0  0  0  0
   14.8630    4.4980   16.8160 C   0  0  0  0  0  0  0  0  0  0  0  0
   15.0690    3.0300   17.0220 C   0  0  0  0  0  0  0  0  0  0  0  0
   14.1650    2.3120   17.7530 N   0  0  0  0  0  0  0  0  0  0  0  0
   14.3930    0.9970   17.9910 C   0  0  0  0  0  0  0  0  0  0  0  0
   13.5590    0.1540   18.7270 C   0  0  0  0  0  0  0  0  0  0  0  0
   14.0640   -1.1450   18.8130 C   0  0  0  0  0  0  0  0  0  0  0  0
   15.5350   -1.2300   17.9770 S   0  0  0  0  0  0  0  0  0  0  0  0
   15.5270    0.3820   17.5070 C   0  0  0  0  0  0  0  0  0  0  0  0
   16.4500    1.1080   16.7660 C   0  0  0  0  0  0  0  0  0  0  0  0
   17.4960    0.5700   16.3200 O   0  0  0  0  0  0  0  0  0  0  0  0
   16.2000    2.4270   16.5400 N   0  0  0  0  0  2  0  0  0  0  0  0
  1  2  1  0
  2  3  1  0
  3  4  1  0
  4  5  1  0
  5  6  2  0
  6  7  1  0
  7  8  2  0
  8  9  1  0
  9 10  2  0
  3 11  2  0
 11 12  1  0
 12 13  2  0
 13 14  1  0
 14 15  1  0
 15 16  1  0
 16 17  2  0
 17 18  1  0
 18 19  1  0
 19 20  2  0
 20 21  1  0
 21 22  1  0
 22 23  1  0
 23 24  2  0
 23 25  1  0
 13  2  1  0
 25 16  1  0
 10  5  1  0
 22 18  2  0
M  CHG  1  25  -1
M  END
$$$$
FCG17822054_QVINAW_9
     RDKit          3D

 21 23  0  0  0  0  0  0  0  0999 V2000
   14.4520   -5.7170   18.5340 N   0  0  0  0  0  0  0  0  0  0  0  0
   14.7510   -4.6010   18.4880 C   0  0  0  0  0  0  0  0  0  0  0  0
   15.1440   -3.2220   18.4430 C   0  0  0  0  0  0  0  0  0  0  0  0
   14.1640   -2.2540   18.3060 C   0  0  0  0  0  0  0  0  0  0  0  0
   14.5170   -0.9440   18.2620 C   0  0  0  0  0  0  0  0  0  0  0  0
   15.8450   -0.5260   18.3480 C   0  0  0  0  0  0  0  0  0  0  0  0
   16.1060    0.9150   18.2880 C   0  0  0  0  0  0  0  0  0  0  0  0
   14.9780    1.8940   19.2750 S   0  0  0  0  0  0  0  0  0  0  0  0
   14.1800    3.1000   18.2310 C   0  0  0  0  0  0  0  0  0  0  0  0
   13.4170    4.1230   18.6260 N   0  0  0  0  0  0  0  0  0  0  0  0
   13.0170    4.7780   17.5560 N   0  0  0  0  0  0  0  0  0  0  0  0
   13.5290    4.1690   16.4840 C   0  0  0  0  0  0  0  0  0  0  0  0
   13.3080    4.6070   15.0870 C   0  0  0  0  0  0  0  0  0  0  0  0
   12.9770    3.4340   14.3100 N   0  0  0  0  0  0  0  0  0  0  0  0
   13.4880    3.4730   12.9790 C   0  0  0  0  0  0  0  0  0  0  0  0
   12.5440    2.6270   12.1370 C   0  0  0  0  0  0  0  0  0  0  0  0
   11.3290    2.3860   12.9880 C   0  0  0  0  0  0  0  0  0  0  0  0
   11.5540    3.2030   14.2260 C   0  0  0  0  0  0  0  0  0  0  0  0
   14.2280    3.1570   16.9230 O   0  0  0  0  0  0  0  0  0  0  0  0
   16.8040   -1.5000   18.4830 C   0  0  0  0  0  0  0  0  0  0  0  0
   16.4520   -2.8350   18.5290 C   0  0  0  0  0  0  0  0  0  0  0  0
  1  2  3  0
  2  3  1  0
  3  4  2  0
  4  5  1  0
  5  6  2  0
  6  7  1  0
  7  8  1  0
  8  9  1  0
  9 10  2  0
 10 11  1  0
 11 12  2  0
 12 13  1  0
 13 14  1  0
 14 15  1  0
 15 16  1  0
 16 17  1  0
 17 18  1  0
 12 19  1  0
  6 20  1  0
 20 21  2  0
 21  3  1  0
 19  9  1  0
 18 14  1  0
M  END
$$$$
FCG18066182_QVINA2_10
     RDKit          3D

 19 20  0  0  0  0  0  0  0  0999 V2000
   13.4670    2.6470   12.7520 C   0  0  0  0  0  0  0  0  0  0  0  0
   13.7230    4.0030   13.3260 C   0  0  0  0  0  0  0  0  0  0  0  0
   13.5050    5.1520   12.6550 N   0  0  0  0  0  0  0  0  0  0  0  0
   13.8460    6.1280   13.4470 O   0  0  0  0  0  0  0  0  0  0  0  0
   14.2760    5.6760   14.6020 C   0  0  0  0  0  0  0  0  0  0  0  0
   14.7530    6.5460   15.7180 C   0  0  0  0  0  0  0  0  0  0  0  0
   14.2340    4.2940   14.5790 C   0  0  0  0  0  0  0  0  0  0  0  0
   14.6290    3.3390   15.6700 C   0  0  0  0  0  0  0  0  0  0  0  0
   13.2520    3.0790   16.8450 S   0  0  0  0  0  0  0  0  0  0  0  0
   14.2610    3.0660   18.3680 C   0  0  0  0  0  0  0  0  0  0  0  0
   14.7100    1.6760   18.6880 C   0  0  0  0  0  0  0  0  0  0  0  0
   13.8990    0.7170   18.5790 O   0  0  0  0  0  0  0  0  0  0  0  0
   16.0760    1.4420   19.0540 N   0  0  0  0  0  2  0  0  0  0  0  0
   17.0280    0.6600   18.3190 C   0  0  0  0  0  0  0  0  0  0  0  0
   16.9670    0.6680   16.9190 C   0  0  0  0  0  0  0  0  0  0  0  0
   17.8910   -0.0640   16.1660 C   0  0  0  0  0  0  0  0  0  0  0  0
   18.8920   -0.7980   16.8080 C   0  0  0  0  0  0  0  0  0  0  0  0
   18.9750   -0.7930   18.2030 C   0  0  0  0  0  0  0  0  0  0  0  0
   18.0530   -0.0620   18.9590 C   0  0  0  0  0  0  0  0  0  0  0  0
  1  2  1  0
  2  3  2  0
  3  4  1  0
  4  5  1  0
  5  6  1  0
  5  7  2  0
  7  8  1  0
  8  9  1  0
  9 10  1  0
 10 11  1  0
 11 12  2  0
 11 13  1  0
 13 14  1  0
 14 15  2  0
 15 16  1  0
 16 17  2  0
 17 18  1  0
 18 19  2  0
  7  2  1  0
 19 14  1  0
M  CHG  1  13  -1
M  END
$$$$
FCG18066182_QVINA2_5
     RDKit          3D

 19 20  0  0  0  0  0  0  0  0999 V2000
   17.4090    0.2970   18.7340 C   0  0  0  0  0  0  0  0  0  0  0  0
   17.5210   -0.5520   17.5090 C   0  0  0  0  0  0  0  0  0  0  0  0
   18.5510   -0.4800   16.6420 N   0  0  0  0  0  0  0  0  0  0  0  0
   18.3160   -1.3430   15.6970 O   0  0  0  0  0  0  0  0  0  0  0  0
   17.1840   -1.9760   15.9000 C   0  0  0  0  0  0  0  0  0  0  0  0
   16.6290   -3.0190   14.9860 C   0  0  0  0  0  0  0  0  0  0  0  0
   16.6100   -1.4920   17.0620 C   0  0  0  0  0  0  0  0  0  0  0  0
   15.3140   -1.9110   17.6960 C   0  0  0  0  0  0  0  0  0  0  0  0
   15.5180   -3.4570   18.6500 S   0  0  0  0  0  0  0  0  0  0  0  0
   14.3580   -4.4750   17.6740 C   0  0  0  0  0  0  0  0  0  0  0  0
   14.3700   -5.8910   18.1540 C   0  0  0  0  0  0  0  0  0  0  0  0
   15.3890   -6.3400   18.7460 O   0  0  0  0  0  0  0  0  0  0  0  0
   13.2010   -6.7030   17.9890 N   0  0  0  0  0  2  0  0  0  0  0  0
   12.1230   -6.8350   18.9270 C   0  0  0  0  0  0  0  0  0  0  0  0
   10.8070   -6.8190   18.4450 C   0  0  0  0  0  0  0  0  0  0  0  0
    9.7300   -6.9660   19.3240 C   0  0  0  0  0  0  0  0  0  0  0  0
    9.9610   -7.1480   20.6900 C   0  0  0  0  0  0  0  0  0  0  0  0
   11.2690   -7.1890   21.1770 C   0  0  0  0  0  0  0  0  0  0  0  0
   12.3500   -7.0420   20.3010 C   0  0  0  0  0  0  0  0  0  0  0  0
  1  2  1  0
  2  3  2  0
  3  4  1  0
  4  5  1  0
  5  6  1  0
  5  7  2  0
  7  8  1  0
  8  9  1  0
  9 10  1  0
 10 11  1  0
 11 12  2  0
 11 13  1  0
 13 14  1  0
 14 15  2  0
 15 16  1  0
 16 17  2  0
 17 18  1  0
 18 19  2  0
  7  2  1  0
 19 14  1  0
M  CHG  1  13  -1
M  END
$$$$
FCG17822054_QVINA2_3
     RDKit          3D

 21 23  0  0  0  0  0  0  0  0999 V2000
   20.5350   -0.3520   14.6360 N   0  0  0  0  0  0  0  0  0  0  0  0
   19.6750   -0.5950   15.3700 C   0  0  0  0  0  0  0  0  0  0  0  0
   18.6060   -0.9200   16.2690 C   0  0  0  0  0  0  0  0  0  0  0  0
   17.5690   -1.7160   15.8110 C   0  0  0  0  0  0  0  0  0  0  0  0
   16.5480   -2.0340   16.6480 C   0  0  0  0  0  0  0  0  0  0  0  0
   16.4980   -1.5860   17.9670 C   0  0  0  0  0  0  0  0  0  0  0  0
   15.3460   -1.9940   18.7770 C   0  0  0  0  0  0  0  0  0  0  0  0
   14.1380   -2.9600   17.8770 S   0  0  0  0  0  0  0  0  0  0  0  0
   14.2810   -4.6720   18.3580 C   0  0  0  0  0  0  0  0  0  0  0  0
   15.2720   -5.2280   19.0600 N   0  0  0  0  0  0  0  0  0  0  0  0
   15.0100   -6.5090   19.2060 N   0  0  0  0  0  0  0  0  0  0  0  0
   13.8500   -6.7640   18.5950 C   0  0  0  0  0  0  0  0  0  0  0  0
   13.2100   -8.0990   18.5350 C   0  0  0  0  0  0  0  0  0  0  0  0
   12.0030   -8.0380   19.3270 N   0  0  0  0  0  0  0  0  0  0  0  0
   10.8910   -7.4890   18.6220 C   0  0  0  0  0  0  0  0  0  0  0  0
    9.9910   -6.8580   19.6750 C   0  0  0  0  0  0  0  0  0  0  0  0
   10.8020   -6.8030   20.9380 C   0  0  0  0  0  0  0  0  0  0  0  0
   12.1700   -7.2750   20.5420 C   0  0  0  0  0  0  0  0  0  0  0  0
   13.4320   -5.6340   18.0910 O   0  0  0  0  0  0  0  0  0  0  0  0
   17.5350   -0.7980   18.4050 C   0  0  0  0  0  0  0  0  0  0  0  0
   18.5770   -0.4700   17.5590 C   0  0  0  0  0  0  0  0  0  0  0  0
  1  2  3  0
  2  3  1  0
  3  4  2  0
  4  5  1  0
  5  6  2  0
  6  7  1  0
  7  8  1  0
  8  9  1  0
  9 10  2  0
 10 11  1  0
 11 12  2  0
 12 13  1  0
 13 14  1  0
 14 15  1  0
 15 16  1  0
 16 17  1  0
 17 18  1  0
 12 19  1  0
  6 20  1  0
 20 21  2  0
 21  3  1  0
 19  9  1  0
 18 14  1  0
M  END
$$$$
FCG16952409_QVINA2_8
     RDKit          3D

 26 28  0  0  0  0  0  0  0  0999 V2000
    9.6250    1.0590   10.3350 C   0  0  0  0  0  0  0  0  0  0  0  0
    9.9890    2.4060   10.8660 C   0  0  0  0  0  0  0  0  0  0  0  0
    9.1900    3.0050   11.6190 O   0  0  0  0  0  0  0  0  0  0  0  0
   11.2280    2.9450   10.4880 N   0  0  0  0  0  0  0  0  0  0  0  0
   11.6880    4.2290   10.9330 C   0  0  0  0  0  0  0  0  0  0  0  0
   12.4430    4.0230   12.2270 C   0  0  0  0  0  0  0  0  0  0  0  0
   13.5220    3.2070   12.4290 C   0  0  0  0  0  0  0  0  0  0  0  0
   13.8910    3.3380   13.7770 C   0  0  0  0  0  0  0  0  0  0  0  0
   13.0110    4.2310   14.3340 C   0  0  0  0  0  0  0  0  0  0  0  0
   12.9800    4.6880   15.7070 C   0  0  0  0  0  0  0  0  0  0  0  0
   11.8380    4.6640   16.2890 O   0  0  0  0  0  0  0  0  0  0  0  0
   14.0970    5.1680   16.4800 C   0  0  0  0  0  0  0  0  0  0  0  0
   14.9320    4.2480   17.1110 O   0  0  0  0  0  0  0  0  0  0  0  0
   14.5710    3.4750   18.1910 C   0  0  0  0  0  0  0  0  0  0  0  0
   13.8950    3.9780   19.1030 O   0  0  0  0  0  0  0  0  0  0  0  0
   14.9490    2.0560   18.3240 C   0  0  0  0  0  0  0  0  0  0  0  0
   16.1340    1.4740   18.4160 C   0  0  0  0  0  0  0  0  0  0  0  0
   16.2140    0.1290   18.5320 C   0  0  0  0  0  0  0  0  0  0  0  0
   15.0610   -0.5710   18.5480 C   0  0  0  0  0  0  0  0  0  0  0  0
   13.8320    0.6960   18.3970 S   0  0  0  0  0  0  0  0  0  0  0  0
   14.6150   -1.9770   18.6500 C   0  0  0  0  0  0  0  0  0  0  0  0
   15.4850   -2.8770   17.8090 C   0  0  0  0  0  0  0  0  0  0  0  0
   16.8880   -2.8710   18.3630 C   0  0  0  0  0  0  0  0  0  0  0  0
   17.6380   -1.7370   17.7220 C   0  0  0  0  0  0  0  0  0  0  0  0
   17.5910   -0.5480   18.6400 C   0  0  0  0  0  0  0  0  0  0  0  0
   12.1770    4.6030   13.3660 O   0  0  0  0  0  0  0  0  0  0  0  0
  1  2  1  0
  2  3  2  0
  2  4  1  0
  4  5  1  0
  5  6  1  0
  6  7  2  0
  7  8  1  0
  8  9  2  0
  9 10  1  0
 10 11  2  0
 10 12  1  0
 12 13  1  0
 13 14  1  0
 14 15  2  0
 14 16  1  0
 16 17  2  0
 17 18  1  0
 18 19  2  0
 19 20  1  0
 19 21  1  0
 21 22  1  0
 22 23  1  0
 23 24  1  0
 24 25  1  0
  9 26  1  0
 26  6  1  0
 20 16  1  0
 25 18  1  0
M  END
$$$$
