FCG1390566_GNINA_2
     RDKit          3D

 14 15  0  0  0  0  0  0  0  0999 V2000
   13.0113    3.6315   15.4800 C   0  0  0  0  0  0  0  0  0  0  0  0
   13.1814    3.1769   16.7415 N   0  0  0  0  0  0  0  0  0  0  0  0
   14.4710    2.8118   16.9781 C   0  0  0  0  0  0  0  0  0  0  0  0
   15.3369    2.9575   15.8960 C   0  0  0  0  0  0  0  0  0  0  0  0
   14.4537    3.5829   14.6089 S   0  0  0  0  0  0  0  0  0  0  0  0
   10.4972    3.5767   15.5436 C   0  0  0  0  0  0  0  0  0  0  0  0
   11.7453    4.0838   14.9672 N   0  0  0  0  0  0  0  0  0  0  0  0
   11.7221    5.0522   13.8680 C   0  0  0  0  0  0  0  0  0  0  0  0
   14.8953    2.2319   18.2905 C   0  0  0  0  0  0  0  0  0  0  0  0
   14.6810    0.7536   18.2874 C   0  0  0  0  0  0  0  0  0  0  0  0
   15.5158   -0.1320   17.7157 N   0  0  0  0  0  0  0  0  0  0  0  0
   14.9255   -1.3037   17.8862 N   0  0  0  0  0  0  0  0  0  0  0  0
   13.7772   -1.1386   18.5238 N   0  0  0  0  0  0  0  0  0  0  0  0
   13.5901    0.1448   18.7849 N   0  0  0  0  0  0  0  0  0  0  0  0
  6  7  1  0
  7  8  1  0
  7  1  1  0
  1  2  2  0
  2  3  1  0
  3  9  1  0
  9 10  1  0
 10 11  2  0
 11 12  1  0
 12 13  2  0
 13 14  1  0
  3  4  2  0
  4  5  1  0
  5  1  1  0
 14 10  1  0
M  CHG  1  14  -1
M  END
$$$$
FCG16425532_GNINA_4
     RDKit          3D

 18 19  0  0  0  0  0  0  0  0999 V2000
   17.8206   -0.9491   19.4830 O   0  0  0  0  0  0  0  0  0  0  0  0
   16.5396   -0.5463   19.0906 C   0  0  0  0  0  0  0  0  0  0  0  0
   16.1946    0.6624   19.1983 O   0  0  0  0  0  0  0  0  0  0  0  0
   13.4703   -0.1406   18.7176 C   0  0  0  0  0  0  0  0  0  0  0  0
   14.2469   -1.3357   18.3959 N   0  0  0  0  0  0  0  0  0  0  0  0
   13.7393   -2.4757   17.8863 C   0  0  0  0  0  0  0  0  0  0  0  0
   14.7439   -3.4057   17.7163 C   0  0  0  0  0  0  0  0  0  0  0  0
   15.9134   -2.8080   18.1411 C   0  0  0  0  0  0  0  0  0  0  0  0
   15.5774   -1.5304   18.5545 C   0  0  0  0  0  0  0  0  0  0  0  0
   19.0006   -0.1998   19.2014 C   0  0  0  0  0  0  0  0  0  0  0  0
   19.4034   -0.3758   17.7565 C   0  0  0  0  0  0  0  0  0  0  0  0
   18.4385   -0.2208   16.7456 C   0  0  0  0  0  0  0  0  0  0  0  0
   18.7827   -0.3998   15.4035 C   0  0  0  0  0  0  0  0  0  0  0  0
   20.0910   -0.7384   15.0552 C   0  0  0  0  0  0  0  0  0  0  0  0
   21.0600   -0.9006   16.0479 C   0  0  0  0  0  0  0  0  0  0  0  0
   20.7265   -0.7238   17.3982 C   0  0  0  0  0  0  0  0  0  0  0  0
   21.7538   -0.9032   18.3962 C   0  0  0  0  0  0  0  0  0  0  0  0
   22.5770   -1.0464   19.1968 N   0  0  0  0  0  0  0  0  0  0  0  0
  4  5  1  0
  5  6  1  0
  6  7  2  0
  7  8  1  0
  8  9  2  0
  9  2  1  0
  2  3  2  0
  2  1  1  0
  1 10  1  0
 10 11  1  0
 11 12  2  0
 12 13  1  0
 13 14  2  0
 14 15  1  0
 15 16  2  0
 16 17  1  0
 17 18  3  0
  9  5  1  0
 16 11  1  0
M  END
$$$$
FCG18472628_GNINA_2
     RDKit          3D

 24 26  0  0  0  0  0  0  0  0999 V2000
   13.6407    0.2987   18.5684 C   0  0  0  0  0  0  0  0  0  0  0  0
   14.8483   -0.4183   18.2155 N   0  0  0  0  0  0  0  0  0  0  0  0
   15.2056   -1.5772   18.7314 N   0  0  0  0  0  0  0  0  0  0  0  0
   16.3544   -1.9791   18.2121 N   0  0  0  0  0  0  0  0  0  0  0  0
   16.7488   -1.0463   17.3323 C   0  0  0  0  0  0  0  0  0  0  0  0
   15.8026   -0.0959   17.3542 N   0  0  0  0  0  0  0  0  0  0  0  0
   17.9714   -1.1247   16.5508 C   0  0  0  0  0  0  0  0  0  0  0  0
   19.0925   -0.4139   16.9126 C   0  0  0  0  0  0  0  0  0  0  0  0
   20.2393   -0.5090   16.1501 C   0  0  0  0  0  0  0  0  0  0  0  0
   20.2968   -1.3064   15.0196 C   0  0  0  0  0  0  0  0  0  0  0  0
   19.1757   -2.0208   14.6526 C   0  0  0  0  0  0  0  0  0  0  0  0
   18.0353   -1.9259   15.4113 C   0  0  0  0  0  0  0  0  0  0  0  0
   16.5162   -2.9341   14.8588 Br  0  0  0  0  0  0  0  0  0  0  0  0
   13.9129    1.7497   18.8030 C   0  0  0  0  0  0  0  0  0  0  0  0
   14.3187    2.0810   19.9464 O   0  0  0  0  0  0  0  0  0  0  0  0
   13.7065    2.6628   17.7532 N   0  0  0  0  0  0  0  0  0  0  0  0
   12.6244    5.0792   14.2279 C   0  0  0  0  0  0  0  0  0  0  0  0
   13.8646    4.3895   14.8047 C   0  0  1  0  0  0  0  0  0  0  0  0
   14.5183    5.3436   15.7235 C   0  0  0  0  0  0  0  0  0  0  0  0
   15.2002    4.7538   16.9023 C   0  0  0  0  0  0  0  0  0  0  0  0
   15.6400    3.3369   16.5262 C   0  0  0  0  0  0  0  0  0  0  0  0
   14.3319    2.5456   16.4460 C   0  0  2  0  0  0  0  0  0  0  0  0
   13.4261    3.0991   15.3932 C   0  0  1  0  0  0  0  0  0  0  0  0
   11.9799    3.1369   15.8955 C   0  0  0  0  0  0  0  0  0  0  0  0
 18 17  1  1
 18 19  1  0
 19 20  1  0
 20 21  1  0
 21 22  1  0
 22 16  1  1
 16 14  1  0
 14 15  2  0
 14  1  1  0
  1  2  1  0
  2  3  1  0
  3  4  2  0
  4  5  1  0
  5  7  1  0
  7  8  2  0
  8  9  1  0
  9 10  2  0
 10 11  1  0
 11 12  2  0
 12 13  1  0
  5  6  2  0
 22 23  1  0
 23 24  1  1
 23 18  1  0
  6  2  1  0
 12  7  1  0
M  CHG  1  16  -1
M  END
$$$$
FCG16600623_GNINA_8
     RDKit          3D

 24 27  0  0  0  0  0  0  0  0999 V2000
   16.4623    2.7641   16.5251 C   0  0  0  0  0  0  0  0  0  0  0  0
   15.5541    3.4294   17.5687 C   0  0  1  0  0  0  0  0  0  0  0  0
   14.2645    3.6794   16.8937 C   0  0  0  0  0  0  0  0  0  0  0  0
   14.0153    3.1778   15.6729 N   0  0  0  0  0  0  0  0  0  0  0  0
   12.8540    3.3784   15.0159 C   0  0  0  0  0  0  0  0  0  0  0  0
   12.6109    2.8581   13.7637 C   0  0  0  0  0  0  0  0  0  0  0  0
   11.4293    3.0503   13.0718 C   0  0  0  0  0  0  0  0  0  0  0  0
   10.4614    3.8065   13.6922 C   0  0  0  0  0  0  0  0  0  0  0  0
   10.6587    4.3472   14.9433 C   0  0  0  0  0  0  0  0  0  0  0  0
   11.8679    4.1323   15.6155 C   0  0  0  0  0  0  0  0  0  0  0  0
   12.1151    4.6480   16.8622 C   0  0  0  0  0  0  0  0  0  0  0  0
   11.1963    5.3352   17.3903 O   0  0  0  0  0  0  0  0  0  0  0  0
   13.2901    4.4178   17.4728 N   0  0  0  0  0  0  0  0  0  0  0  0
   15.4621    2.5480   18.6429 O   0  0  0  0  0  0  0  0  0  0  0  0
   14.5186    1.5701   18.7953 C   0  0  0  0  0  0  0  0  0  0  0  0
   13.4434    1.8218   19.3569 O   0  0  0  0  0  0  0  0  0  0  0  0
   14.7525    0.1980   18.2991 C   0  0  0  0  0  0  0  0  0  0  0  0
   13.8977   -0.8944   18.5138 C   0  0  0  0  0  0  0  0  0  0  0  0
   14.2827   -2.0690   17.9808 C   0  0  0  0  0  0  0  0  0  0  0  0
   15.4619   -2.1225   17.2763 C   0  0  0  0  0  0  0  0  0  0  0  0
   16.0115   -0.4465   17.3930 S   0  0  0  0  0  0  0  0  0  0  0  0
   15.7503   -3.4706   16.7543 C   0  0  0  0  0  0  0  0  0  0  0  0
   14.3604   -4.0697   16.7557 C   0  0  0  0  0  0  0  0  0  0  0  0
   13.6992   -3.4926   17.9576 C   0  0  0  0  0  0  0  0  0  0  0  0
  2  1  1  6
  2 14  1  0
 14 15  1  0
 15 16  2  0
 15 17  1  0
 17 18  2  0
 18 19  1  0
 19 20  2  0
 20 21  1  0
 20 22  1  0
 22 23  1  0
 23 24  1  0
  2  3  1  0
  3  4  2  0
  4  5  1  0
  5  6  2  0
  6  7  1  0
  7  8  2  0
  8  9  1  0
  9 10  2  0
 10 11  1  0
 11 12  2  0
 11 13  1  0
 21 17  1  0
 13  3  1  0
 24 19  1  0
 10  5  1  0
M  CHG  1  13  -1
M  END
$$$$
FCG16952409_GNINA_3
     RDKit          3D

 26 28  0  0  0  0  0  0  0  0999 V2000
   13.2830    0.5816   18.8994 C   0  0  0  0  0  0  0  0  0  0  0  0
   14.2363    1.7127   18.8938 C   0  0  0  0  0  0  0  0  0  0  0  0
   15.0307    1.8413   19.8559 O   0  0  0  0  0  0  0  0  0  0  0  0
   14.5516    3.6775   15.9259 C   0  0  0  0  0  0  0  0  0  0  0  0
   14.1635    4.6586   16.7910 C   0  0  0  0  0  0  0  0  0  0  0  0
   13.9973    4.0401   18.0134 C   0  0  0  0  0  0  0  0  0  0  0  0
   14.2994    2.6902   17.8211 C   0  0  0  0  0  0  0  0  0  0  0  0
   14.6145    2.5546   16.5763 O   0  0  0  0  0  0  0  0  0  0  0  0
   14.8385    3.9411   14.4754 C   0  0  0  0  0  0  0  0  0  0  0  0
   13.9283    3.1050   13.7113 N   0  0  0  0  0  0  0  0  0  0  0  0
   11.5141    3.0224   14.3157 C   0  0  0  0  0  0  0  0  0  0  0  0
   12.6151    3.5988   13.4983 C   0  0  0  0  0  0  0  0  0  0  0  0
   12.4503    4.4830   12.6445 O   0  0  0  0  0  0  0  0  0  0  0  0
   13.8850   -0.6277   19.2461 O   0  0  0  0  0  0  0  0  0  0  0  0
   14.3114   -1.5759   18.3309 C   0  0  0  0  0  0  0  0  0  0  0  0
   13.5140   -2.4088   17.8823 O   0  0  0  0  0  0  0  0  0  0  0  0
   15.6987   -1.5462   17.9345 C   0  0  0  0  0  0  0  0  0  0  0  0
   16.3543   -1.9699   16.8517 C   0  0  0  0  0  0  0  0  0  0  0  0
   17.6806   -1.8099   16.7418 C   0  0  0  0  0  0  0  0  0  0  0  0
   18.3259   -1.1883   17.8007 C   0  0  0  0  0  0  0  0  0  0  0  0
   17.0387   -0.8495   18.9183 S   0  0  0  0  0  0  0  0  0  0  0  0
   19.7372   -0.8280   18.0700 C   0  0  0  0  0  0  0  0  0  0  0  0
   20.5119   -0.8186   16.7755 C   0  0  0  0  0  0  0  0  0  0  0  0
   19.8033   -0.1380   15.6544 C   0  0  0  0  0  0  0  0  0  0  0  0
   18.9460   -1.0402   14.8222 C   0  0  0  0  0  0  0  0  0  0  0  0
   18.4898   -2.2684   15.5376 C   0  0  0  0  0  0  0  0  0  0  0  0
 11 12  1  0
 12 13  2  0
 12 10  1  0
 10  9  1  0
  9  4  1  0
  4  5  2  0
  5  6  1  0
  6  7  2  0
  7  2  1  0
  2  3  2  0
  2  1  1  0
  1 14  1  0
 14 15  1  0
 15 16  2  0
 15 17  1  0
 17 18  2  0
 18 19  1  0
 19 20  2  0
 20 21  1  0
 20 22  1  0
 22 23  1  0
 23 24  1  0
 24 25  1  0
 25 26  1  0
  7  8  1  0
  8  4  1  0
 21 17  1  0
 26 19  1  0
M  CHG  1  10  -1
M  END
$$$$
FCG17822054_GNINA_3
     RDKit          3D

 21 23  0  0  0  0  0  0  0  0999 V2000
   15.2159   -0.0047   18.7229 C   0  0  0  0  0  0  0  0  0  0  0  0
   13.9917   -0.3612   19.1122 N   0  0  0  0  0  0  0  0  0  0  0  0
   13.1012    0.4885   18.5285 N   0  0  0  0  0  0  0  0  0  0  0  0
   13.8587    1.3598   17.7813 C   0  0  0  0  0  0  0  0  0  0  0  0
   15.0727    1.0349   17.9184 O   0  0  0  0  0  0  0  0  0  0  0  0
   16.8382   -0.6415   19.1019 S   0  0  0  0  0  0  0  0  0  0  0  0
   17.1483   -2.1473   18.0804 C   0  0  0  0  0  0  0  0  0  0  0  0
   19.9622   -0.6629   15.1064 C   0  0  0  0  0  0  0  0  0  0  0  0
   20.0328   -0.3842   16.5323 C   0  0  0  0  0  0  0  0  0  0  0  0
   19.1634   -0.8703   17.3763 C   0  0  0  0  0  0  0  0  0  0  0  0
   18.0737   -1.7070   17.0369 C   0  0  0  0  0  0  0  0  0  0  0  0
   17.9954   -1.9913   15.6806 C   0  0  0  0  0  0  0  0  0  0  0  0
   18.8530   -1.5201   14.7806 C   0  0  0  0  0  0  0  0  0  0  0  0
   21.5354    0.5193   13.3771 N   0  0  0  0  0  0  0  0  0  0  0  0
   20.6865   -0.1054   14.2974 C   0  0  0  0  0  0  0  0  0  0  0  0
   13.2725    2.4874   16.9568 C   0  0  0  0  0  0  0  0  0  0  0  0
   14.1610    3.3893   16.4163 N   0  0  0  0  0  0  0  0  0  0  0  0
   14.6690    4.3927   17.2707 C   0  0  0  0  0  0  0  0  0  0  0  0
   15.8380    5.0086   16.4882 C   0  0  0  0  0  0  0  0  0  0  0  0
   16.3413    3.7463   15.7746 C   0  0  0  0  0  0  0  0  0  0  0  0
   14.9808    3.1922   15.3212 C   0  0  0  0  0  0  0  0  0  0  0  0
 14 15  3  0
 15  8  1  0
  8  9  2  0
  9 10  1  0
 10 11  2  0
 11  7  1  0
  7  6  1  0
  6  1  1  0
  1  2  2  0
  2  3  1  0
  3  4  2  0
  4 16  1  0
 16 17  1  0
 17 18  1  0
 18 19  1  0
 19 20  1  0
 20 21  1  0
  4  5  1  0
 11 12  1  0
 12 13  2  0
 13  8  1  0
  5  1  1  0
 21 17  1  0
M  END
$$$$
FCG17274676_PLANTS_10
     RDKit          3D

 28 31  0  0  0  0  0  0  0  0999 V2000
   20.0432   -0.6900   17.4478 C   0  0  0  0  0  0  0  0  0  0  0  0
   19.1492   -0.4557   18.6596 C   0  0  0  0  0  0  0  0  0  0  0  0
   17.7339   -0.6025   18.2970 N   0  0  0  0  0  0  0  0  0  0  0  0
   16.9870   -1.7683   18.7084 C   0  0  0  0  0  0  0  0  0  0  0  0
   17.5954   -2.7958   19.1139 O   0  0  0  0  0  0  0  0  0  0  0  0
   15.4878   -1.7931   18.6487 C   0  0  0  0  0  0  0  0  0  0  0  0
   15.0705   -2.7575   17.6878 O   0  0  0  0  0  0  0  0  0  0  0  0
   14.7788   -4.0979   17.9767 C   0  0  0  0  0  0  0  0  0  0  0  0
   14.6963   -5.0001   16.9123 C   0  0  0  0  0  0  0  0  0  0  0  0
   14.3924   -6.3416   17.1445 C   0  0  0  0  0  0  0  0  0  0  0  0
   14.1722   -6.7976   18.4458 C   0  0  0  0  0  0  0  0  0  0  0  0
   14.2562   -5.9110   19.5361 C   0  0  0  0  0  0  0  0  0  0  0  0
   14.0335   -6.3643   20.8872 N   0  0  0  0  0  0  0  0  0  0  0  0
   12.9593   -6.9895   21.4062 C   0  0  0  0  0  0  0  0  0  0  0  0
   13.1632   -7.2358   22.7135 N   0  0  0  0  0  0  0  0  0  0  0  0
   14.3693   -6.7531   22.9774 N   0  0  0  0  0  0  0  0  0  0  0  0
   14.8947   -6.2287   21.8813 N   0  0  0  0  0  0  0  0  0  0  0  0
   14.5623   -4.5590   19.2897 C   0  0  0  0  0  0  0  0  0  0  0  0
   17.0930    0.4525   17.5569 C   0  0  0  0  0  0  0  0  0  0  0  0
   17.4709    0.6696   16.2245 C   0  0  0  0  0  0  0  0  0  0  0  0
   16.9082    1.7114   15.4868 C   0  0  0  0  0  0  0  0  0  0  0  0
   15.9593    2.5523   16.0682 C   0  0  0  0  0  0  0  0  0  0  0  0
   15.5568    2.3510   17.3963 C   0  0  0  0  0  0  0  0  0  0  0  0
   14.6012    3.1972   17.9804 C   0  0  0  0  0  0  0  0  0  0  0  0
   14.1948    2.9931   19.3003 C   0  0  0  0  0  0  0  0  0  0  0  0
   14.7340    1.9444   20.0460 C   0  0  0  0  0  0  0  0  0  0  0  0
   15.6891    1.0964   19.4808 C   0  0  0  0  0  0  0  0  0  0  0  0
   16.1185    1.2890   18.1528 C   0  0  0  0  0  0  0  0  0  0  0  0
  1  2  1  0
  2  3  1  0
  3  4  1  0
  3 19  1  0
  4  5  2  0
  4  6  1  0
  6  7  1  0
  7  8  1  0
  8  9  2  0
  9 10  1  0
 10 11  2  0
 11 12  1  0
 12 13  1  0
 12 18  2  0
 13 14  1  0
 14 15  2  0
 15 16  1  0
 16 17  2  0
 17 13  1  0
 18  8  1  0
 19 20  2  0
 20 21  1  0
 21 22  2  0
 22 23  1  0
 23 24  2  0
 24 25  1  0
 25 26  2  0
 26 27  1  0
 27 28  2  0
 28 19  1  0
 28 23  1  0
M  END
$$$$
FCG17585042_PLANTS_3
     RDKit          3D

 25 28  0  0  0  0  0  0  0  0999 V2000
   13.2975   -0.3920   18.6715 C   0  0  0  0  0  0  0  0  0  0  0  0
   14.5007   -1.1866   18.4348 N   0  0  0  0  0  0  0  0  0  0  0  0
   14.5992   -2.4292   17.9175 C   0  0  0  0  0  0  0  0  0  0  0  0
   13.4439   -3.2941   17.5061 C   0  0  0  0  0  0  0  0  0  0  0  0
   13.6108   -4.6874   18.0487 C   0  0  0  0  0  0  0  0  0  0  0  0
   14.7378   -5.0254   18.8173 C   0  0  0  0  0  0  0  0  0  0  0  0
   14.8747   -6.3163   19.3369 C   0  0  0  0  0  0  0  0  0  0  0  0
   13.8894   -7.2774   19.0950 C   0  0  0  0  0  0  0  0  0  0  0  0
   12.7646   -6.9489   18.3335 C   0  0  0  0  0  0  0  0  0  0  0  0
   12.6233   -5.6590   17.8124 C   0  0  0  0  0  0  0  0  0  0  0  0
   15.8864   -2.7784   17.7233 N   0  0  0  0  0  0  0  0  0  0  0  0
   16.6307   -1.7549   18.1158 N   0  0  0  0  0  0  0  0  0  0  0  0
   15.7856   -0.7956   18.5369 C   0  0  0  0  0  0  0  0  0  0  0  0
   16.3324    0.8093   19.1300 S   0  0  0  0  0  0  0  0  0  0  0  0
   17.8945    0.1834   19.8374 C   0  0  0  0  0  0  0  0  0  0  0  0
   18.8636   -0.1607   18.7520 C   0  0  0  0  0  0  0  0  0  0  0  0
   18.4494   -0.1737   17.4493 N   0  0  0  0  0  0  0  0  0  0  0  0
   19.3433   -0.4469   16.4666 C   0  0  0  0  0  0  0  0  0  0  0  0
   19.0537   -0.4884   15.1020 C   0  0  0  0  0  0  0  0  0  0  0  0
   20.1776   -0.7900   14.3321 C   0  0  0  0  0  0  0  0  0  0  0  0
   21.5145   -0.9992   15.3532 S   0  0  0  0  0  0  0  0  0  0  0  0
   20.6614   -0.7068   16.7693 C   0  0  0  0  0  0  0  0  0  0  0  0
   21.0883   -0.6902   18.0906 C   0  0  0  0  0  0  0  0  0  0  0  0
   22.2884   -0.9217   18.3918 O   0  0  0  0  0  0  0  0  0  0  0  0
   20.1738   -0.4117   19.0613 N   0  0  0  0  0  0  0  0  0  0  0  0
  1  2  1  0
  2  3  1  0
  3  4  1  0
  3 11  2  0
  4  5  1  0
  5  6  2  0
  6  7  1  0
  7  8  2  0
  8  9  1  0
  9 10  2  0
 10  5  1  0
 11 12  1  0
 12 13  2  0
 13 14  1  0
 13  2  1  0
 14 15  1  0
 15 16  1  0
 16 17  1  0
 17 18  2  0
 18 19  1  0
 19 20  2  0
 20 21  1  0
 21 22  1  0
 22 23  1  0
 22 18  1  0
 23 24  2  0
 23 25  1  0
 25 16  2  0
M  END
$$$$
FCG16141527_PLANTS_9
     RDKit          3D

 23 26  0  0  0  0  0  0  0  0999 V2000
   14.7539    0.4067   19.0083 C   0  0  0  0  0  0  0  0  0  0  0  0
   15.5620   -0.3819   18.0335 C   0  0  0  0  0  0  0  0  0  0  0  0
   15.1044   -1.5807   17.5899 N   0  0  0  0  0  0  0  0  0  0  0  0
   15.7805   -2.3029   16.6583 C   0  0  0  0  0  0  0  0  0  0  0  0
   15.0590   -3.8579   16.1079 S   0  0  0  0  0  0  0  0  0  0  0  0
   15.8608   -4.8706   17.4017 C   0  0  0  0  0  0  0  0  0  0  0  0
   14.8358   -5.5464   18.2646 C   0  0  0  0  0  0  0  0  0  0  0  0
   13.6250   -6.0111   17.7121 C   0  0  0  0  0  0  0  0  0  0  0  0
   12.6648   -6.5742   18.5617 C   0  0  0  0  0  0  0  0  0  0  0  0
   11.5695   -6.9879   18.0937 O   0  0  0  0  0  0  0  0  0  0  0  0
   12.9345   -6.6595   19.8939 N   0  0  0  0  0  0  0  0  0  0  0  0
   12.1208   -7.1691   20.8595 C   0  0  0  0  0  0  0  0  0  0  0  0
   12.6626   -7.1181   22.1436 C   0  0  0  0  0  0  0  0  0  0  0  0
   14.1998   -6.4137   22.0570 S   0  0  0  0  0  0  0  0  0  0  0  0
   14.1048   -6.2096   20.3958 C   0  0  0  0  0  0  0  0  0  0  0  0
   15.0540   -5.6517   19.6062 N   0  0  0  0  0  0  0  0  0  0  0  0
   16.9906   -1.8035   16.1382 C   0  0  0  0  0  0  0  0  0  0  0  0
   17.7520   -2.4918   15.1748 C   0  0  0  0  0  0  0  0  0  0  0  0
   18.9394   -1.9344   14.6902 C   0  0  0  0  0  0  0  0  0  0  0  0
   19.3769   -0.6924   15.1575 C   0  0  0  0  0  0  0  0  0  0  0  0
   18.6297    0.0005   16.1134 C   0  0  0  0  0  0  0  0  0  0  0  0
   17.4406   -0.5482   16.6067 C   0  0  0  0  0  0  0  0  0  0  0  0
   16.7149    0.1312   17.5320 N   0  0  0  0  0  0  0  0  0  0  0  0
  1  2  1  0
  2  3  2  0
  3  4  1  0
  4  5  1  0
  4 17  2  0
  5  6  1  0
  6  7  1  0
  7  8  2  0
  8  9  1  0
  9 10  2  0
  9 11  1  0
 11 12  1  0
 12 13  2  0
 13 14  1  0
 14 15  1  0
 15 16  2  0
 15 11  1  0
 16  7  1  0
 17 18  1  0
 18 19  2  0
 19 20  1  0
 20 21  2  0
 21 22  1  0
 22 23  2  0
 22 17  1  0
 23  2  1  0
M  END
$$$$
FCG18066182_QVINAW_10
     RDKit          3D

 19 20  0  0  0  0  0  0  0  0999 V2000
   13.9500   -1.0830   18.5670 C   0  0  0  0  0  0  0  0  0  0  0  0
   15.3780   -1.2780   18.1690 C   0  0  0  0  0  0  0  0  0  0  0  0
   15.8610   -2.4400   17.6870 N   0  0  0  0  0  0  0  0  0  0  0  0
   17.1190   -2.2470   17.4130 O   0  0  0  0  0  0  0  0  0  0  0  0
   17.4830   -1.0160   17.6880 C   0  0  0  0  0  0  0  0  0  0  0  0
   18.8610   -0.4800   17.4710 C   0  0  0  0  0  0  0  0  0  0  0  0
   16.3850   -0.3280   18.1710 C   0  0  0  0  0  0  0  0  0  0  0  0
   16.3180    1.1080   18.6100 C   0  0  0  0  0  0  0  0  0  0  0  0
   16.0080    2.2190   17.1890 S   0  0  0  0  0  0  0  0  0  0  0  0
   14.2120    2.4230   17.4520 C   0  0  0  0  0  0  0  0  0  0  0  0
   13.8050    3.8390   17.2020 C   0  0  0  0  0  0  0  0  0  0  0  0
   13.0820    4.4380   18.0430 O   0  0  0  0  0  0  0  0  0  0  0  0
   14.2720    4.5090   16.0270 N   0  0  0  0  0  2  0  0  0  0  0  0
   14.7190    5.8690   15.9380 C   0  0  0  0  0  0  0  0  0  0  0  0
   13.8360    6.8360   15.4390 C   0  0  0  0  0  0  0  0  0  0  0  0
   14.2240    8.1770   15.3610 C   0  0  0  0  0  0  0  0  0  0  0  0
   15.4930    8.5640   15.7990 C   0  0  0  0  0  0  0  0  0  0  0  0
   16.3720    7.6130   16.3230 C   0  0  0  0  0  0  0  0  0  0  0  0
   15.9880    6.2700   16.4000 C   0  0  0  0  0  0  0  0  0  0  0  0
  1  2  1  0
  2  3  2  0
  3  4  1  0
  4  5  1  0
  5  6  1  0
  5  7  2  0
  7  8  1  0
  8  9  1  0
  9 10  1  0
 10 11  1  0
 11 12  2  0
 11 13  1  0
 13 14  1  0
 14 15  2  0
 15 16  1  0
 16 17  2  0
 17 18  1  0
 18 19  2  0
  7  2  1  0
 19 14  1  0
M  CHG  1  13  -1
M  END
$$$$
