FCG18066182_SMINA_1
     RDKit          3D

 19 20  0  0  0  0  0  0  0  0999 V2000
   15.2416   -1.3749   17.5699 C   0  0  0  0  0  0  0  0  0  0  0  0
   14.4232   -2.5683   17.9585 C   0  0  0  0  0  0  0  0  0  0  0  0
   13.1680   -2.4593   18.0044 O   0  0  0  0  0  0  0  0  0  0  0  0
   15.0586   -3.8335   18.2071 N   0  0  0  0  0  0  0  0  0  0  0  0
   14.3428   -5.0420   18.5101 C   0  0  0  0  0  0  0  0  0  0  0  0
   13.2687   -5.4784   17.7129 C   0  0  0  0  0  0  0  0  0  0  0  0
   12.5797   -6.6507   18.0402 C   0  0  0  0  0  0  0  0  0  0  0  0
   12.9472   -7.3883   19.1687 C   0  0  0  0  0  0  0  0  0  0  0  0
   13.9983   -6.9495   19.9776 C   0  0  0  0  0  0  0  0  0  0  0  0
   14.6882   -5.7770   19.6549 C   0  0  0  0  0  0  0  0  0  0  0  0
   16.5752   -1.8803   16.4292 S   0  0  0  0  0  0  0  0  0  0  0  0
   17.4242   -0.2640   16.3766 C   0  0  0  0  0  0  0  0  0  0  0  0
   18.0753   -0.4851   19.4903 C   0  0  0  0  0  0  0  0  0  0  0  0
   19.0562   -0.5242   18.3633 C   0  0  0  0  0  0  0  0  0  0  0  0
   20.3839   -0.6917   18.5230 N   0  0  0  0  0  0  0  0  0  0  0  0
   20.9146   -0.6850   17.3329 O   0  0  0  0  0  0  0  0  0  0  0  0
   19.9996   -0.5207   16.4046 C   0  0  0  0  0  0  0  0  0  0  0  0
   20.2797   -0.4834   14.9389 C   0  0  0  0  0  0  0  0  0  0  0  0
   18.7698   -0.3927   17.0181 C   0  0  0  0  0  0  0  0  0  0  0  0
 13 14  1  0
 14 15  2  0
 15 16  1  0
 16 17  1  0
 17 18  1  0
 17 19  2  0
 19 12  1  0
 12 11  1  0
 11  1  1  0
  1  2  1  0
  2  3  2  0
  2  4  1  0
  4  5  1  0
  5  6  2  0
  6  7  1  0
  7  8  2  0
  8  9  1  0
  9 10  2  0
 19 14  1  0
 10  5  1  0
M  END
$$$$
FCG16425532_SMINA_1
     RDKit          3D

 18 19  0  0  0  0  0  0  0  0999 V2000
   14.4180   -3.1057   18.4206 O   0  0  0  0  0  0  0  0  0  0  0  0
   13.5144   -4.0530   17.9248 C   0  0  0  0  0  0  0  0  0  0  0  0
   12.6061   -3.7056   17.1228 O   0  0  0  0  0  0  0  0  0  0  0  0
   11.2448   -6.1942   17.9943 C   0  0  0  0  0  0  0  0  0  0  0  0
   12.6427   -6.3771   18.3785 N   0  0  0  0  0  0  0  0  0  0  0  0
   13.1793   -7.5285   18.8294 C   0  0  0  0  0  0  0  0  0  0  0  0
   14.5214   -7.3515   19.0957 C   0  0  0  0  0  0  0  0  0  0  0  0
   14.8157   -6.0369   18.7942 C   0  0  0  0  0  0  0  0  0  0  0  0
   13.6383   -5.4595   18.3546 C   0  0  0  0  0  0  0  0  0  0  0  0
   14.5433   -1.7874   17.8911 C   0  0  0  0  0  0  0  0  0  0  0  0
   16.0011   -1.4278   17.7137 C   0  0  0  0  0  0  0  0  0  0  0  0
   16.5957   -0.5727   18.6579 C   0  0  0  0  0  0  0  0  0  0  0  0
   17.9428   -0.2207   18.5500 C   0  0  0  0  0  0  0  0  0  0  0  0
   18.7140   -0.7186   17.4996 C   0  0  0  0  0  0  0  0  0  0  0  0
   18.1408   -1.5710   16.5536 C   0  0  0  0  0  0  0  0  0  0  0  0
   16.7892   -1.9325   16.6503 C   0  0  0  0  0  0  0  0  0  0  0  0
   16.2431   -2.8178   15.6499 C   0  0  0  0  0  0  0  0  0  0  0  0
   15.8061   -3.5281   14.8475 N   0  0  0  0  0  0  0  0  0  0  0  0
  4  5  1  0
  5  6  1  0
  6  7  2  0
  7  8  1  0
  8  9  2  0
  9  2  1  0
  2  3  2  0
  2  1  1  0
  1 10  1  0
 10 11  1  0
 11 12  2  0
 12 13  1  0
 13 14  2  0
 14 15  1  0
 15 16  2  0
 16 17  1  0
 17 18  3  0
  9  5  1  0
 16 11  1  0
M  END
$$$$
FCG17274676_SMINA_1
     RDKit          3D

 28 31  0  0  0  0  0  0  0  0999 V2000
   14.8170   -2.5921   17.7637 N   0  0  0  0  0  0  0  0  0  0  0  0
   13.9310   -3.6989   17.5020 C   0  0  0  0  0  0  0  0  0  0  0  0
   12.7013   -3.5858   17.7567 O   0  0  0  0  0  0  0  0  0  0  0  0
   15.9932   -2.3884   16.9628 C   0  0  0  0  0  0  0  0  0  0  0  0
   16.0019   -2.8526   15.6405 C   0  0  0  0  0  0  0  0  0  0  0  0
   17.1151   -2.6498   14.8243 C   0  0  0  0  0  0  0  0  0  0  0  0
   18.2362   -1.9813   15.3167 C   0  0  0  0  0  0  0  0  0  0  0  0
   18.2557   -1.5137   16.6385 C   0  0  0  0  0  0  0  0  0  0  0  0
   19.3809   -0.8343   17.1312 C   0  0  0  0  0  0  0  0  0  0  0  0
   19.3987   -0.3637   18.4456 C   0  0  0  0  0  0  0  0  0  0  0  0
   18.2991   -0.5699   19.2793 C   0  0  0  0  0  0  0  0  0  0  0  0
   17.1727   -1.2457   18.8047 C   0  0  0  0  0  0  0  0  0  0  0  0
   17.1305   -1.7214   17.4788 C   0  0  0  0  0  0  0  0  0  0  0  0
   13.8080   -0.4178   18.3394 C   0  0  0  0  0  0  0  0  0  0  0  0
   14.5287   -1.6569   18.8579 C   0  0  0  0  0  0  0  0  0  0  0  0
   14.4522   -5.0286   17.0212 C   0  0  0  0  0  0  0  0  0  0  0  0
   14.9099   -5.8473   18.0970 O   0  0  0  0  0  0  0  0  0  0  0  0
   14.1868   -6.1503   19.2613 C   0  0  0  0  0  0  0  0  0  0  0  0
   14.8336   -6.0041   20.4921 C   0  0  0  0  0  0  0  0  0  0  0  0
   14.1792   -6.3332   21.6789 C   0  0  0  0  0  0  0  0  0  0  0  0
   12.8670   -6.8092   21.6490 C   0  0  0  0  0  0  0  0  0  0  0  0
   12.1889   -6.9540   20.4240 C   0  0  0  0  0  0  0  0  0  0  0  0
   12.8570   -6.6123   19.2332 C   0  0  0  0  0  0  0  0  0  0  0  0
   10.8360   -7.4510   20.3729 N   0  0  0  0  0  0  0  0  0  0  0  0
    9.6838   -6.8040   20.6334 C   0  0  0  0  0  0  0  0  0  0  0  0
    8.6437   -7.6422   20.4700 N   0  0  0  0  0  0  0  0  0  0  0  0
    9.1794   -8.7998   20.1093 N   0  0  0  0  0  0  0  0  0  0  0  0
   10.4972   -8.6878   20.0504 N   0  0  0  0  0  0  0  0  0  0  0  0
 14 15  1  0
 15  1  1  0
  1  2  1  0
  2  3  2  0
  2 16  1  0
 16 17  1  0
 17 18  1  0
 18 19  2  0
 19 20  1  0
 20 21  2  0
 21 22  1  0
 22 24  1  0
 24 25  1  0
 25 26  2  0
 26 27  1  0
 27 28  2  0
 22 23  2  0
  1  4  1  0
  4  5  2  0
  5  6  1  0
  6  7  2  0
  7  8  1  0
  8  9  2  0
  9 10  1  0
 10 11  2  0
 11 12  1  0
 12 13  2  0
 23 18  1  0
 13  4  1  0
 28 24  1  0
 13  8  1  0
M  END
$$$$
FCG17822054_SMINA_1
     RDKit          3D

 21 23  0  0  0  0  0  0  0  0999 V2000
   14.7885   -1.2672   17.7919 C   0  0  0  0  0  0  0  0  0  0  0  0
   13.4850   -1.4760   18.1396 N   0  0  0  0  0  0  0  0  0  0  0  0
   13.1801   -2.7504   17.9565 N   0  0  0  0  0  0  0  0  0  0  0  0
   14.2743   -3.3481   17.4978 C   0  0  0  0  0  0  0  0  0  0  0  0
   15.2059   -2.4520   17.4105 O   0  0  0  0  0  0  0  0  0  0  0  0
   15.6824    0.2816   17.8568 S   0  0  0  0  0  0  0  0  0  0  0  0
   16.8524    0.3182   16.4963 C   0  0  0  0  0  0  0  0  0  0  0  0
   20.7542   -0.7304   17.8115 C   0  0  0  0  0  0  0  0  0  0  0  0
   20.5334   -0.6387   16.4521 C   0  0  0  0  0  0  0  0  0  0  0  0
   19.2562   -0.2960   16.0431 C   0  0  0  0  0  0  0  0  0  0  0  0
   18.2181   -0.0472   16.8864 C   0  0  0  0  0  0  0  0  0  0  0  0
   18.4807   -0.1500   18.2544 C   0  0  0  0  0  0  0  0  0  0  0  0
   19.7328   -0.4873   18.7101 C   0  0  0  0  0  0  0  0  0  0  0  0
   23.0979   -1.3842   18.7452 N   0  0  0  0  0  0  0  0  0  0  0  0
   22.0461   -1.0796   18.3287 C   0  0  0  0  0  0  0  0  0  0  0  0
   14.4507   -4.7989   17.1317 C   0  0  0  0  0  0  0  0  0  0  0  0
   13.8202   -5.6674   18.0848 N   0  0  0  0  0  0  0  0  0  0  0  0
   13.9661   -7.0338   17.6411 C   0  0  0  0  0  0  0  0  0  0  0  0
   13.6001   -7.8103   18.9090 C   0  0  0  0  0  0  0  0  0  0  0  0
   14.2703   -6.9580   19.9861 C   0  0  0  0  0  0  0  0  0  0  0  0
   14.6210   -5.6630   19.3112 C   0  0  0  0  0  0  0  0  0  0  0  0
 14 15  3  0
 15  8  1  0
  8  9  2  0
  9 10  1  0
 10 11  2  0
 11  7  1  0
  7  6  1  0
  6  1  1  0
  1  2  2  0
  2  3  1  0
  3  4  2  0
  4 16  1  0
 16 17  1  0
 17 18  1  0
 18 19  1  0
 19 20  1  0
 20 21  1  0
  4  5  1  0
 11 12  1  0
 12 13  2  0
 13  8  1  0
  5  1  1  0
 21 17  1  0
M  CHG  1  17   1
M  END
$$$$
FCG16600623_SMINA_1
     RDKit          3D

 24 27  0  0  0  0  0  0  0  0999 V2000
   13.9668   -1.1837   18.5161 C   0  0  0  0  0  0  0  0  0  0  0  0
   14.6926   -2.2228   17.6748 C   0  0  1  0  0  0  0  0  0  0  0  0
   16.1065   -1.7723   17.5149 C   0  0  0  0  0  0  0  0  0  0  0  0
   16.7460   -1.8121   16.3372 N   0  0  0  0  0  0  0  0  0  0  0  0
   18.0294   -1.4044   16.1862 C   0  0  0  0  0  0  0  0  0  0  0  0
   18.6833   -1.4474   14.9715 C   0  0  0  0  0  0  0  0  0  0  0  0
   20.0009   -1.0182   14.8644 C   0  0  0  0  0  0  0  0  0  0  0  0
   20.7006   -0.5379   15.9529 C   0  0  0  0  0  0  0  0  0  0  0  0
   20.0374   -0.4964   17.1752 C   0  0  0  0  0  0  0  0  0  0  0  0
   18.7277   -0.9246   17.2745 C   0  0  0  0  0  0  0  0  0  0  0  0
   18.0700   -0.8827   18.4896 C   0  0  0  0  0  0  0  0  0  0  0  0
   18.7084   -0.4436   19.4863 O   0  0  0  0  0  0  0  0  0  0  0  0
   16.7880   -1.3041   18.5761 N   0  0  0  0  0  0  0  0  0  0  0  0
   14.6172   -3.4433   18.3833 O   0  0  0  0  0  0  0  0  0  0  0  0
   14.2411   -4.6156   17.7098 C   0  0  0  0  0  0  0  0  0  0  0  0
   14.8002   -4.8372   16.6098 O   0  0  0  0  0  0  0  0  0  0  0  0
   13.2493   -5.5156   18.2780 C   0  0  0  0  0  0  0  0  0  0  0  0
   11.9190   -5.6735   18.0576 C   0  0  0  0  0  0  0  0  0  0  0  0
   11.2667   -6.6287   18.7714 C   0  0  0  0  0  0  0  0  0  0  0  0
   11.9483   -7.3647   19.6497 C   0  0  0  0  0  0  0  0  0  0  0  0
   13.5782   -6.7560   19.5308 S   0  0  0  0  0  0  0  0  0  0  0  0
   11.0715   -8.3733   20.3576 C   0  0  0  0  0  0  0  0  0  0  0  0
    9.7465   -7.6372   20.2452 C   0  0  0  0  0  0  0  0  0  0  0  0
    9.8262   -7.1347   18.8346 C   0  0  0  0  0  0  0  0  0  0  0  0
  2  1  1  1
  2 14  1  0
 14 15  1  0
 15 16  2  0
 15 17  1  0
 17 18  2  0
 18 19  1  0
 19 20  2  0
 20 21  1  0
 20 22  1  0
 22 23  1  0
 23 24  1  0
  2  3  1  0
  3  4  2  0
  4  5  1  0
  5  6  2  0
  6  7  1  0
  7  8  2  0
  8  9  1  0
  9 10  2  0
 10 11  1  0
 11 12  2  0
 11 13  1  0
 21 17  1  0
 13  3  1  0
 24 19  1  0
 10  5  1  0
M  CHG  1  13  -1
M  END
$$$$
FCG1390566_SMINA_1
     RDKit          3D

 14 15  0  0  0  0  0  0  0  0999 V2000
   14.2874   -4.2322   18.3143 C   0  0  0  0  0  0  0  0  0  0  0  0
   13.0229   -4.5137   17.9285 N   0  0  0  0  0  0  0  0  0  0  0  0
   12.7199   -5.8283   18.1081 C   0  0  0  0  0  0  0  0  0  0  0  0
   13.7401   -6.6027   18.6573 C   0  0  0  0  0  0  0  0  0  0  0  0
   15.0696   -5.6034   18.9059 S   0  0  0  0  0  0  0  0  0  0  0  0
   16.3209   -2.7534   18.2401 C   0  0  0  0  0  0  0  0  0  0  0  0
   14.8649   -2.9170   18.2303 N   0  0  0  0  0  0  0  0  0  0  0  0
   13.9821   -1.7517   18.1357 C   0  0  0  0  0  0  0  0  0  0  0  0
   11.3605   -6.3708   17.7978 C   0  0  0  0  0  0  0  0  0  0  0  0
   10.7328   -6.9132   19.0399 C   0  0  0  0  0  0  0  0  0  0  0  0
   10.2336   -6.1536   20.0309 N   0  0  0  0  0  0  0  0  0  0  0  0
    9.7253   -7.0206   20.8910 N   0  0  0  0  0  0  0  0  0  0  0  0
    9.8973   -8.2532   20.4398 N   0  0  0  0  0  0  0  0  0  0  0  0
   10.5220   -8.2205   19.2741 N   0  0  0  0  0  0  0  0  0  0  0  0
  6  7  1  0
  7  8  1  0
  7  1  1  0
  1  2  2  0
  2  3  1  0
  3  9  1  0
  9 10  1  0
 10 11  2  0
 11 12  1  0
 12 13  2  0
 13 14  1  0
  3  4  2  0
  4  5  1  0
  5  1  1  0
 14 10  1  0
M  CHG  1  14  -1
M  END
$$$$
FCG18472628_SMINA_1
     RDKit          3D

 24 26  0  0  0  0  0  0  0  0999 V2000
   14.9965   -3.8673   16.5837 C   0  0  0  0  0  0  0  0  0  0  0  0
   14.3924   -5.0365   17.2085 N   0  0  0  0  0  0  0  0  0  0  0  0
   14.7471   -6.3095   17.0930 N   0  0  0  0  0  0  0  0  0  0  0  0
   13.9264   -7.0540   17.8335 N   0  0  0  0  0  0  0  0  0  0  0  0
   13.0341   -6.2465   18.4311 C   0  0  0  0  0  0  0  0  0  0  0  0
   13.3526   -5.0062   18.0217 N   0  0  0  0  0  0  0  0  0  0  0  0
   11.9606   -6.6600   19.3273 C   0  0  0  0  0  0  0  0  0  0  0  0
   10.6938   -6.8676   18.8271 C   0  0  0  0  0  0  0  0  0  0  0  0
    9.6609   -7.2640   19.6830 C   0  0  0  0  0  0  0  0  0  0  0  0
    9.8772   -7.4570   21.0393 C   0  0  0  0  0  0  0  0  0  0  0  0
   11.1521   -7.2464   21.5333 C   0  0  0  0  0  0  0  0  0  0  0  0
   12.1605   -6.8556   20.6765 C   0  0  0  0  0  0  0  0  0  0  0  0
   13.9089   -6.5715   21.3778 Br  0  0  0  0  0  0  0  0  0  0  0  0
   15.0327   -2.7177   17.4922 C   0  0  0  0  0  0  0  0  0  0  0  0
   14.0054   -2.0431   17.6927 O   0  0  0  0  0  0  0  0  0  0  0  0
   16.2317   -2.3679   18.1457 N   0  0  0  0  0  0  0  0  0  0  0  0
   18.8527   -1.1790   15.1974 C   0  0  0  0  0  0  0  0  0  0  0  0
   18.4234   -1.2225   16.6495 C   0  0  1  0  0  0  0  0  0  0  0  0
   19.4668   -0.6777   17.5680 C   0  0  0  0  0  0  0  0  0  0  0  0
   18.8749   -0.1090   18.8146 C   0  0  0  0  0  0  0  0  0  0  0  0
   17.6452   -0.8375   19.2945 C   0  0  0  0  0  0  0  0  0  0  0  0
   16.5818   -0.9656   18.2329 C   0  0  1  0  0  0  0  0  0  0  0  0
   17.0983   -0.5637   16.8658 C   0  0  1  0  0  0  0  0  0  0  0  0
   17.1017    0.9151   16.6756 C   0  0  0  0  0  0  0  0  0  0  0  0
 18 17  1  6
 18 19  1  0
 19 20  1  0
 20 21  1  0
 21 22  1  0
 22 16  1  6
 16 14  1  0
 14 15  2  0
 14  1  1  0
  1  2  1  0
  2  3  1  0
  3  4  2  0
  4  5  1  0
  5  7  1  0
  7  8  2  0
  8  9  1  0
  9 10  2  0
 10 11  1  0
 11 12  2  0
 12 13  1  0
  5  6  2  0
 22 23  1  0
 23 24  1  1
 23 18  1  0
  6  2  1  0
 12  7  1  0
M  CHG  1  16  -1
M  END
$$$$
FCG16141527_SMINA_1
     RDKit          3D

 23 26  0  0  0  0  0  0  0  0999 V2000
   14.6482   -4.0771   16.8240 S   0  0  0  0  0  0  0  0  0  0  0  0
   13.5789    0.3517   19.2700 C   0  0  0  0  0  0  0  0  0  0  0  0
   14.5040   -0.3788   18.3552 C   0  0  0  0  0  0  0  0  0  0  0  0
   14.2477   -1.6702   18.0201 N   0  0  0  0  0  0  0  0  0  0  0  0
   15.0841   -2.3773   17.2160 C   0  0  0  0  0  0  0  0  0  0  0  0
   16.2558   -1.7673   16.7254 C   0  0  0  0  0  0  0  0  0  0  0  0
   17.1733   -2.4320   15.8891 C   0  0  0  0  0  0  0  0  0  0  0  0
   18.3185   -1.7690   15.4372 C   0  0  0  0  0  0  0  0  0  0  0  0
   18.5605   -0.4451   15.8127 C   0  0  0  0  0  0  0  0  0  0  0  0
   17.6579    0.2251   16.6424 C   0  0  0  0  0  0  0  0  0  0  0  0
   16.5074   -0.4277   17.0993 C   0  0  0  0  0  0  0  0  0  0  0  0
   15.6323    0.2278   17.9045 N   0  0  0  0  0  0  0  0  0  0  0  0
   15.3436   -4.7358   18.3735 C   0  0  0  0  0  0  0  0  0  0  0  0
   14.2793   -5.4764   19.1201 C   0  0  0  0  0  0  0  0  0  0  0  0
   14.4891   -5.8811   20.4531 C   0  0  0  0  0  0  0  0  0  0  0  0
   13.4831   -6.6035   21.1076 C   0  0  0  0  0  0  0  0  0  0  0  0
   13.6438   -6.9736   22.3023 O   0  0  0  0  0  0  0  0  0  0  0  0
   12.3380   -6.8978   20.4310 N   0  0  0  0  0  0  0  0  0  0  0  0
   11.2647   -7.5885   20.9056 C   0  0  0  0  0  0  0  0  0  0  0  0
   10.2336   -7.7423   19.9790 C   0  0  0  0  0  0  0  0  0  0  0  0
   10.6877   -6.9910   18.5311 S   0  0  0  0  0  0  0  0  0  0  0  0
   12.1686   -6.5063   19.1497 C   0  0  0  0  0  0  0  0  0  0  0  0
   13.1194   -5.8070   18.4843 N   0  0  0  0  0  0  0  0  0  0  0  0
  2  3  1  0
  3  4  2  0
  4  5  1  0
  5  1  1  0
  1 13  1  0
 13 14  1  0
 14 15  2  0
 15 16  1  0
 16 17  2  0
 16 18  1  0
 18 19  1  0
 19 20  2  0
 20 21  1  0
 21 22  1  0
 22 23  2  0
  5  6  2  0
  6  7  1  0
  7  8  2  0
  8  9  1  0
  9 10  2  0
 10 11  1  0
 11 12  2  0
 12  3  1  0
 23 14  1  0
 11  6  1  0
 22 18  1  0
M  END
$$$$
FCG17585042_SMINA_1
     RDKit          3D

 25 28  0  0  0  0  0  0  0  0999 V2000
   16.5820   -2.5210   15.5398 C   0  0  0  0  0  0  0  0  0  0  0  0
   15.7640   -2.2149   16.7120 N   0  0  0  0  0  0  0  0  0  0  0  0
   15.7382   -1.0776   17.4375 C   0  0  0  0  0  0  0  0  0  0  0  0
   14.9564   -1.2085   18.5274 N   0  0  0  0  0  0  0  0  0  0  0  0
   14.4653   -2.4390   18.5084 N   0  0  0  0  0  0  0  0  0  0  0  0
   14.9615   -3.0414   17.4117 C   0  0  0  0  0  0  0  0  0  0  0  0
   16.5351    0.1592   17.1412 C   0  0  0  0  0  0  0  0  0  0  0  0
   18.0082   -0.1276   17.2424 C   0  0  0  0  0  0  0  0  0  0  0  0
   18.7977   -0.2321   16.0841 C   0  0  0  0  0  0  0  0  0  0  0  0
   20.1607   -0.5283   16.1853 C   0  0  0  0  0  0  0  0  0  0  0  0
   20.7441   -0.7232   17.4401 C   0  0  0  0  0  0  0  0  0  0  0  0
   19.9662   -0.6203   18.5964 C   0  0  0  0  0  0  0  0  0  0  0  0
   18.6030   -0.3251   18.5001 C   0  0  0  0  0  0  0  0  0  0  0  0
   14.5686   -4.7334   16.9521 S   0  0  0  0  0  0  0  0  0  0  0  0
   15.2825   -5.4714   18.4637 C   0  0  0  0  0  0  0  0  0  0  0  0
   14.2087   -6.0478   19.3301 C   0  0  0  0  0  0  0  0  0  0  0  0
   12.9596   -6.2562   18.8166 N   0  0  0  0  0  0  0  0  0  0  0  0
   11.9735   -6.7166   19.6270 C   0  0  0  0  0  0  0  0  0  0  0  0
   10.6573   -6.9663   19.2343 C   0  0  0  0  0  0  0  0  0  0  0  0
    9.8672   -7.4199   20.2908 C   0  0  0  0  0  0  0  0  0  0  0  0
   10.8097   -7.5042   21.6973 S   0  0  0  0  0  0  0  0  0  0  0  0
   12.2182   -6.9653   20.9596 C   0  0  0  0  0  0  0  0  0  0  0  0
   13.4841   -6.7511   21.4865 C   0  0  0  0  0  0  0  0  0  0  0  0
   13.7312   -6.9686   22.7013 O   0  0  0  0  0  0  0  0  0  0  0  0
   14.4591   -6.2909   20.6546 N   0  0  0  0  0  0  0  0  0  0  0  0
  1  2  1  0
  2  3  1  0
  3  7  1  0
  7  8  1  0
  8  9  2  0
  9 10  1  0
 10 11  2  0
 11 12  1  0
 12 13  2  0
  3  4  2  0
  4  5  1  0
  5  6  2  0
  6 14  1  0
 14 15  1  0
 15 16  1  0
 16 17  2  0
 17 18  1  0
 18 19  1  0
 19 20  2  0
 20 21  1  0
 21 22  1  0
 22 23  1  0
 23 24  2  0
 23 25  1  0
  6  2  1  0
 25 16  1  0
 13  8  1  0
 22 18  2  0
M  CHG  1  25  -1
M  END
$$$$
FCG16952409_SMINA_1
     RDKit          3D

 26 28  0  0  0  0  0  0  0  0999 V2000
   15.6480   -2.6460   17.4256 C   0  0  0  0  0  0  0  0  0  0  0  0
   14.2687   -2.9537   17.8017 C   0  0  0  0  0  0  0  0  0  0  0  0
   13.4892   -2.0213   18.1012 O   0  0  0  0  0  0  0  0  0  0  0  0
   12.4580   -6.0342   17.8811 C   0  0  0  0  0  0  0  0  0  0  0  0
   13.7251   -6.5328   17.9339 C   0  0  0  0  0  0  0  0  0  0  0  0
   14.5717   -5.4441   17.9113 C   0  0  0  0  0  0  0  0  0  0  0  0
   13.7547   -4.3101   17.8439 C   0  0  0  0  0  0  0  0  0  0  0  0
   12.5248   -4.7257   17.8292 O   0  0  0  0  0  0  0  0  0  0  0  0
   11.1617   -6.7562   17.8778 C   0  0  0  0  0  0  0  0  0  0  0  0
    9.0322   -6.9812   21.1410 C   0  0  0  0  0  0  0  0  0  0  0  0
    9.9001   -7.3532   19.9913 C   0  0  0  0  0  0  0  0  0  0  0  0
   10.2632   -8.5455   19.9149 O   0  0  0  0  0  0  0  0  0  0  0  0
   10.3220   -6.4466   19.0085 N   0  0  0  0  0  0  0  0  0  0  0  0
   16.4778   -2.3504   18.5210 O   0  0  0  0  0  0  0  0  0  0  0  0
   16.9963   -1.1216   18.8020 C   0  0  0  0  0  0  0  0  0  0  0  0
   17.9878   -1.0413   19.5633 O   0  0  0  0  0  0  0  0  0  0  0  0
   16.4560    0.1322   18.2590 C   0  0  0  0  0  0  0  0  0  0  0  0
   15.6080    1.0210   18.7977 C   0  0  0  0  0  0  0  0  0  0  0  0
   15.2493    2.1056   18.1115 C   0  0  0  0  0  0  0  0  0  0  0  0
   15.7794    2.2659   16.8507 C   0  0  0  0  0  0  0  0  0  0  0  0
   16.8267    0.7710   16.6980 S   0  0  0  0  0  0  0  0  0  0  0  0
   15.6629    3.2688   15.7735 C   0  0  0  0  0  0  0  0  0  0  0  0
   14.2266    3.4270   15.3123 C   0  0  0  0  0  0  0  0  0  0  0  0
   13.2649    3.2080   16.4679 C   0  0  0  0  0  0  0  0  0  0  0  0
   13.6870    4.0035   17.6593 C   0  0  0  0  0  0  0  0  0  0  0  0
   14.2925    3.1333   18.6898 C   0  0  0  0  0  0  0  0  0  0  0  0
 10 11  1  0
 11 12  2  0
 11 13  1  0
 13  9  1  0
  9  4  1  0
  4  5  2  0
  5  6  1  0
  6  7  2  0
  7  2  1  0
  2  3  2  0
  2  1  1  0
  1 14  1  0
 14 15  1  0
 15 16  2  0
 15 17  1  0
 17 18  2  0
 18 19  1  0
 19 20  2  0
 20 21  1  0
 20 22  1  0
 22 23  1  0
 23 24  1  0
 24 25  1  0
 25 26  1  0
  7  8  1  0
  8  4  1  0
 21 17  1  0
 26 19  1  0
M  END
$$$$
