FCG18066182_PLANTS_2
     RDKit          3D

 19 20  0  0  0  0  0  0  0  0999 V2000
   17.7986   -0.5429   19.4450 C   0  0  0  0  0  0  0  0  0  0  0  0
   18.8835   -0.5630   18.4172 C   0  0  0  0  0  0  0  0  0  0  0  0
   20.1922   -0.7108   18.7032 N   0  0  0  0  0  0  0  0  0  0  0  0
   20.8343   -0.6917   17.5694 O   0  0  0  0  0  0  0  0  0  0  0  0
   20.0101   -0.5381   16.5580 C   0  0  0  0  0  0  0  0  0  0  0  0
   20.4287   -0.4914   15.1260 C   0  0  0  0  0  0  0  0  0  0  0  0
   18.7253   -0.4312   17.0510 C   0  0  0  0  0  0  0  0  0  0  0  0
   17.4456   -0.3207   16.2837 C   0  0  0  0  0  0  0  0  0  0  0  0
   16.5834   -1.9306   16.3162 S   0  0  0  0  0  0  0  0  0  0  0  0
   15.2757   -1.4397   17.4927 C   0  0  0  0  0  0  0  0  0  0  0  0
   14.4257   -2.6254   17.8342 C   0  0  0  0  0  0  0  0  0  0  0  0
   13.1733   -2.4871   17.8762 O   0  0  0  0  0  0  0  0  0  0  0  0
   15.0282   -3.9138   18.0423 N   0  0  0  0  0  0  0  0  0  0  0  0
   14.2809   -5.1141   18.2985 C   0  0  0  0  0  0  0  0  0  0  0  0
   14.8490   -6.1984   18.9922 C   0  0  0  0  0  0  0  0  0  0  0  0
   14.1036   -7.3608   19.2141 C   0  0  0  0  0  0  0  0  0  0  0  0
   12.7938   -7.4557   18.7365 C   0  0  0  0  0  0  0  0  0  0  0  0
   12.2304   -6.3919   18.0275 C   0  0  0  0  0  0  0  0  0  0  0  0
   12.9731   -5.2290   17.8019 C   0  0  0  0  0  0  0  0  0  0  0  0
  1  2  1  0
  2  3  2  0
  3  4  1  0
  4  5  1  0
  5  6  1  0
  5  7  2  0
  7  8  1  0
  7  2  1  0
  8  9  1  0
  9 10  1  0
 10 11  1  0
 11 12  2  0
 11 13  1  0
 13 14  1  0
 14 15  2  0
 15 16  1  0
 16 17  2  0
 17 18  1  0
 18 19  2  0
 19 14  1  0
M  END
$$$$
