FCG16141527_SMINA_3
     RDKit          3D

 23 26  0  0  0  0  0  0  0  0999 V2000
   14.5236   -5.7444   17.5956 S   0  0  0  0  0  0  0  0  0  0  0  0
   14.9222   -6.5719   22.6845 C   0  0  0  0  0  0  0  0  0  0  0  0
   14.0480   -6.6148   21.4762 C   0  0  0  0  0  0  0  0  0  0  0  0
   14.5433   -6.2450   20.2664 N   0  0  0  0  0  0  0  0  0  0  0  0
   13.7686   -6.2404   19.1502 C   0  0  0  0  0  0  0  0  0  0  0  0
   12.4129   -6.6131   19.2447 C   0  0  0  0  0  0  0  0  0  0  0  0
   11.5445   -6.6329   18.1363 C   0  0  0  0  0  0  0  0  0  0  0  0
   10.2085   -7.0122   18.2985 C   0  0  0  0  0  0  0  0  0  0  0  0
    9.7264   -7.3723   19.5595 C   0  0  0  0  0  0  0  0  0  0  0  0
   10.5779   -7.3563   20.6671 C   0  0  0  0  0  0  0  0  0  0  0  0
   11.9175   -6.9803   20.5165 C   0  0  0  0  0  0  0  0  0  0  0  0
   12.7419   -6.9672   21.5954 N   0  0  0  0  0  0  0  0  0  0  0  0
   13.4759   -4.2640   17.4246 C   0  0  0  0  0  0  0  0  0  0  0  0
   14.2816   -3.0454   17.7476 C   0  0  0  0  0  0  0  0  0  0  0  0
   15.6895   -3.0938   17.7363 C   0  0  0  0  0  0  0  0  0  0  0  0
   16.4093   -1.9418   18.0788 C   0  0  0  0  0  0  0  0  0  0  0  0
   17.6702   -1.9571   18.0721 O   0  0  0  0  0  0  0  0  0  0  0  0
   15.7241   -0.8147   18.4192 N   0  0  0  0  0  0  0  0  0  0  0  0
   16.2562    0.3858   18.7797 C   0  0  0  0  0  0  0  0  0  0  0  0
   15.3054    1.3606   19.0814 C   0  0  0  0  0  0  0  0  0  0  0  0
   13.7618    0.6919   18.8894 S   0  0  0  0  0  0  0  0  0  0  0  0
   14.3738   -0.8004   18.4319 C   0  0  0  0  0  0  0  0  0  0  0  0
   13.6442   -1.8949   18.1073 N   0  0  0  0  0  0  0  0  0  0  0  0
  2  3  1  0
  3  4  2  0
  4  5  1  0
  5  1  1  0
  1 13  1  0
 13 14  1  0
 14 15  2  0
 15 16  1  0
 16 17  2  0
 16 18  1  0
 18 19  1  0
 19 20  2  0
 20 21  1  0
 21 22  1  0
 22 23  2  0
  5  6  2  0
  6  7  1  0
  7  8  2  0
  8  9  1  0
  9 10  2  0
 10 11  1  0
 11 12  2  0
 12  3  1  0
 23 14  1  0
 11  6  1  0
 22 18  1  0
M  END
$$$$
