FCG17274676_GNINA_2
     RDKit          3D

 28 31  0  0  0  0  0  0  0  0999 V2000
   13.7798    3.9480   16.7725 N   0  0  0  0  0  0  0  0  0  0  0  0
   13.9891    2.8685   17.7048 C   0  0  0  0  0  0  0  0  0  0  0  0
   14.6341    3.0797   18.7675 O   0  0  0  0  0  0  0  0  0  0  0  0
   12.6035    3.9873   15.9473 C   0  0  0  0  0  0  0  0  0  0  0  0
   11.3941    4.4165   16.5106 C   0  0  0  0  0  0  0  0  0  0  0  0
   10.2373    4.4933   15.7345 C   0  0  0  0  0  0  0  0  0  0  0  0
   10.2709    4.1421   14.3848 C   0  0  0  0  0  0  0  0  0  0  0  0
   11.4666    3.7024   13.7989 C   0  0  0  0  0  0  0  0  0  0  0  0
   11.5018    3.3564   12.4389 C   0  0  0  0  0  0  0  0  0  0  0  0
   12.6934    2.9237   11.8539 C   0  0  0  0  0  0  0  0  0  0  0  0
   13.8562    2.8282   12.6190 C   0  0  0  0  0  0  0  0  0  0  0  0
   13.8372    3.1669   13.9739 C   0  0  0  0  0  0  0  0  0  0  0  0
   12.6472    3.6141   14.5822 C   0  0  0  0  0  0  0  0  0  0  0  0
   16.1421    4.4631   16.2913 C   0  0  0  0  0  0  0  0  0  0  0  0
   14.7714    5.0238   16.6523 C   0  0  0  0  0  0  0  0  0  0  0  0
   13.5401    1.4633   17.3968 C   0  0  0  0  0  0  0  0  0  0  0  0
   13.8092    0.5651   18.4729 O   0  0  0  0  0  0  0  0  0  0  0  0
   14.7880   -0.4411   18.4752 C   0  0  0  0  0  0  0  0  0  0  0  0
   16.1301   -0.0509   18.4397 C   0  0  0  0  0  0  0  0  0  0  0  0
   17.1441   -1.0074   18.3952 C   0  0  0  0  0  0  0  0  0  0  0  0
   16.8275   -2.3672   18.3898 C   0  0  0  0  0  0  0  0  0  0  0  0
   15.4847   -2.7868   18.4376 C   0  0  0  0  0  0  0  0  0  0  0  0
   14.4700   -1.8127   18.4891 C   0  0  0  0  0  0  0  0  0  0  0  0
   15.1383   -4.1868   18.4255 N   0  0  0  0  0  0  0  0  0  0  0  0
   14.2645   -4.8379   17.6341 C   0  0  0  0  0  0  0  0  0  0  0  0
   14.2401   -6.1434   17.9600 N   0  0  0  0  0  0  0  0  0  0  0  0
   15.1066   -6.2728   18.9548 N   0  0  0  0  0  0  0  0  0  0  0  0
   15.6478   -5.0981   19.2368 N   0  0  0  0  0  0  0  0  0  0  0  0
 14 15  1  0
 15  1  1  0
  1  2  1  0
  2  3  2  0
  2 16  1  0
 16 17  1  0
 17 18  1  0
 18 19  2  0
 19 20  1  0
 20 21  2  0
 21 22  1  0
 22 24  1  0
 24 25  1  0
 25 26  2  0
 26 27  1  0
 27 28  2  0
 22 23  2  0
  1  4  1  0
  4  5  2  0
  5  6  1  0
  6  7  2  0
  7  8  1  0
  8  9  2  0
  9 10  1  0
 10 11  2  0
 11 12  1  0
 12 13  2  0
 23 18  1  0
 13  4  1  0
 28 24  1  0
 13  8  1  0
M  END
$$$$
