FCG16600623_SMINA_6
     RDKit          3D

 24 27  0  0  0  0  0  0  0  0999 V2000
   16.3709   -2.2573   16.3865 C   0  0  0  0  0  0  0  0  0  0  0  0
   15.3877   -1.9497   17.5057 C   0  0  1  0  0  0  0  0  0  0  0  0
   14.5682   -3.1747   17.7412 C   0  0  0  0  0  0  0  0  0  0  0  0
   15.0925   -4.3094   18.2262 N   0  0  0  0  0  0  0  0  0  0  0  0
   14.3533   -5.4244   18.4420 C   0  0  0  0  0  0  0  0  0  0  0  0
   14.8979   -6.5901   18.9415 C   0  0  0  0  0  0  0  0  0  0  0  0
   14.1002   -7.7097   19.1466 C   0  0  0  0  0  0  0  0  0  0  0  0
   12.7493   -7.7026   18.8635 C   0  0  0  0  0  0  0  0  0  0  0  0
   12.2049   -6.5253   18.3603 C   0  0  0  0  0  0  0  0  0  0  0  0
   13.0035   -5.4163   18.1587 C   0  0  0  0  0  0  0  0  0  0  0  0
   12.4611   -4.2472   17.6588 C   0  0  0  0  0  0  0  0  0  0  0  0
   11.2257   -4.2389   17.3992 O   0  0  0  0  0  0  0  0  0  0  0  0
   13.2516   -3.1672   17.4652 N   0  0  0  0  0  0  0  0  0  0  0  0
   16.1582   -1.6181   18.6431 O   0  0  0  0  0  0  0  0  0  0  0  0
   16.8758   -0.4124   18.6688 C   0  0  0  0  0  0  0  0  0  0  0  0
   18.0315   -0.4550   19.1530 O   0  0  0  0  0  0  0  0  0  0  0  0
   16.2887    0.8150   18.1536 C   0  0  0  0  0  0  0  0  0  0  0  0
   16.5208    1.5441   17.0322 C   0  0  0  0  0  0  0  0  0  0  0  0
   15.7815    2.6688   16.8424 C   0  0  0  0  0  0  0  0  0  0  0  0
   14.8687    3.0095   17.7524 C   0  0  0  0  0  0  0  0  0  0  0  0
   14.9877    1.7531   18.9560 S   0  0  0  0  0  0  0  0  0  0  0  0
   14.1425    4.2852   17.3886 C   0  0  0  0  0  0  0  0  0  0  0  0
   15.2282    4.9277   16.5409 C   0  0  0  0  0  0  0  0  0  0  0  0
   15.7076    3.7423   15.7575 C   0  0  0  0  0  0  0  0  0  0  0  0
  2  1  1  6
  2 14  1  0
 14 15  1  0
 15 16  2  0
 15 17  1  0
 17 18  2  0
 18 19  1  0
 19 20  2  0
 20 21  1  0
 20 22  1  0
 22 23  1  0
 23 24  1  0
  2  3  1  0
  3  4  2  0
  4  5  1  0
  5  6  2  0
  6  7  1  0
  7  8  2  0
  8  9  1  0
  9 10  2  0
 10 11  1  0
 11 12  2  0
 11 13  1  0
 21 17  1  0
 13  3  1  0
 24 19  1  0
 10  5  1  0
M  CHG  1  13  -1
M  END
$$$$
