FCG17822054_PLANTS_10
     RDKit          3D

 21 23  0  0  0  0  0  0  0  0999 V2000
   20.6053   -1.0270   15.3139 N   0  0  0  0  0  0  0  0  0  0  0  0
   19.7111   -0.7301   16.0103 C   0  0  0  0  0  0  0  0  0  0  0  0
   18.6118   -0.3466   16.8487 C   0  0  0  0  0  0  0  0  0  0  0  0
   18.6058   -0.6480   18.1956 C   0  0  0  0  0  0  0  0  0  0  0  0
   17.5043   -0.2393   18.9275 C   0  0  0  0  0  0  0  0  0  0  0  0
   16.4410    0.4325   18.4091 C   0  0  0  0  0  0  0  0  0  0  0  0
   15.2564    0.8830   19.1470 C   0  0  0  0  0  0  0  0  0  0  0  0
   13.7420    0.0598   18.6466 S   0  0  0  0  0  0  0  0  0  0  0  0
   14.1113   -1.6636   18.3373 C   0  0  0  0  0  0  0  0  0  0  0  0
   15.3382   -2.2601   18.3863 N   0  0  0  0  0  0  0  0  0  0  0  0
   15.2136   -3.5456   18.0989 N   0  0  0  0  0  0  0  0  0  0  0  0
   13.9241   -3.7676   17.8691 C   0  0  0  0  0  0  0  0  0  0  0  0
   13.2613   -5.0698   17.5016 C   0  0  0  0  0  0  0  0  0  0  0  0
   12.4722   -5.5875   18.5831 N   0  0  0  0  0  0  0  0  0  0  0  0
   11.3364   -6.2931   18.0377 C   0  0  0  0  0  0  0  0  0  0  0  0
   10.8443   -7.0752   19.2586 C   0  0  0  0  0  0  0  0  0  0  0  0
   12.1670   -7.5048   19.8921 C   0  0  0  0  0  0  0  0  0  0  0  0
   13.2215   -6.6725   19.2208 C   0  0  0  0  0  0  0  0  0  0  0  0
   13.2981   -2.6429   18.0163 O   0  0  0  0  0  0  0  0  0  0  0  0
   16.4838    0.7191   17.0428 C   0  0  0  0  0  0  0  0  0  0  0  0
   17.5557    0.3342   16.2733 C   0  0  0  0  0  0  0  0  0  0  0  0
  1  2  3  0
  2  3  1  0
  3  4  2  0
  4  5  1  0
  5  6  2  0
  6  7  1  0
  6 20  1  0
  7  8  1  0
  8  9  1  0
  9 10  2  0
 10 11  1  0
 11 12  2  0
 12 13  1  0
 12 19  1  0
 13 14  1  0
 14 15  1  0
 15 16  1  0
 16 17  1  0
 17 18  1  0
 18 14  1  0
 19  9  1  0
 20 21  2  0
 21  3  1  0
M  CHG  1  14   1
M  END
$$$$
