FCG16952409_GNINA_2
     RDKit          3D

 26 28  0  0  0  0  0  0  0  0999 V2000
   15.8447   -0.5686   18.1900 C   0  0  0  0  0  0  0  0  0  0  0  0
   16.4360    0.1286   17.0485 C   0  0  0  0  0  0  0  0  0  0  0  0
   15.9983    1.2542   16.7200 O   0  0  0  0  0  0  0  0  0  0  0  0
   19.3691   -0.7107   15.1865 C   0  0  0  0  0  0  0  0  0  0  0  0
   18.7167   -1.9041   15.1017 C   0  0  0  0  0  0  0  0  0  0  0  0
   17.5307   -1.7476   15.7883 C   0  0  0  0  0  0  0  0  0  0  0  0
   17.5228   -0.4330   16.2679 C   0  0  0  0  0  0  0  0  0  0  0  0
   18.6306    0.1218   15.8800 O   0  0  0  0  0  0  0  0  0  0  0  0
   20.6862   -0.3163   14.6286 C   0  0  0  0  0  0  0  0  0  0  0  0
   21.5217    2.0556   11.6436 C   0  0  0  0  0  0  0  0  0  0  0  0
   21.6717    1.1651   12.8260 C   0  0  0  0  0  0  0  0  0  0  0  0
   22.8312    0.9634   13.2429 O   0  0  0  0  0  0  0  0  0  0  0  0
   20.5940    0.5533   13.4820 N   0  0  0  0  0  0  0  0  0  0  0  0
   15.2188   -1.7797   17.8476 O   0  0  0  0  0  0  0  0  0  0  0  0
   15.5693   -3.0061   18.3283 C   0  0  0  0  0  0  0  0  0  0  0  0
   16.7402   -3.1859   18.7353 O   0  0  0  0  0  0  0  0  0  0  0  0
   14.6450   -4.1459   18.3993 C   0  0  0  0  0  0  0  0  0  0  0  0
   13.4460   -4.3323   17.8274 C   0  0  0  0  0  0  0  0  0  0  0  0
   12.7736   -5.4641   18.0348 C   0  0  0  0  0  0  0  0  0  0  0  0
   13.3562   -6.4116   18.8466 C   0  0  0  0  0  0  0  0  0  0  0  0
   14.9296   -5.5911   19.3008 S   0  0  0  0  0  0  0  0  0  0  0  0
   12.9881   -7.7539   19.3390 C   0  0  0  0  0  0  0  0  0  0  0  0
   11.6865   -7.7244   20.1171 C   0  0  0  0  0  0  0  0  0  0  0  0
   10.7513   -6.6654   19.5584 C   0  0  0  0  0  0  0  0  0  0  0  0
   10.6519   -6.7846   18.0730 C   0  0  0  0  0  0  0  0  0  0  0  0
   11.4147   -5.7098   17.4032 C   0  0  0  0  0  0  0  0  0  0  0  0
 10 11  1  0
 11 12  2  0
 11 13  1  0
 13  9  1  0
  9  4  1  0
  4  5  2  0
  5  6  1  0
  6  7  2  0
  7  2  1  0
  2  3  2  0
  2  1  1  0
  1 14  1  0
 14 15  1  0
 15 16  2  0
 15 17  1  0
 17 18  2  0
 18 19  1  0
 19 20  2  0
 20 21  1  0
 20 22  1  0
 22 23  1  0
 23 24  1  0
 24 25  1  0
 25 26  1  0
  7  8  1  0
  8  4  1  0
 21 17  1  0
 26 19  1  0
M  END
$$$$
