FCG16425532_SMINA_8
     RDKit          3D

 18 19  0  0  0  0  0  0  0  0999 V2000
   15.0428   -4.4713   18.8772 O   0  0  0  0  0  0  0  0  0  0  0  0
   15.1834   -3.5309   17.8498 C   0  0  0  0  0  0  0  0  0  0  0  0
   14.7203   -3.7699   16.7021 O   0  0  0  0  0  0  0  0  0  0  0  0
   13.8661   -0.7763   18.4960 C   0  0  0  0  0  0  0  0  0  0  0  0
   15.2942   -1.0724   18.4071 N   0  0  0  0  0  0  0  0  0  0  0  0
   16.2854   -0.1791   18.5990 C   0  0  0  0  0  0  0  0  0  0  0  0
   17.5111   -0.7931   18.4431 C   0  0  0  0  0  0  0  0  0  0  0  0
   17.2566   -2.1165   18.1438 C   0  0  0  0  0  0  0  0  0  0  0  0
   15.8811   -2.2603   18.1278 C   0  0  0  0  0  0  0  0  0  0  0  0
   14.8892   -5.8702   18.6459 C   0  0  0  0  0  0  0  0  0  0  0  0
   13.4795   -6.3064   18.9748 C   0  0  0  0  0  0  0  0  0  0  0  0
   12.5374   -6.3556   17.9324 C   0  0  0  0  0  0  0  0  0  0  0  0
   11.2253   -6.7661   18.1780 C   0  0  0  0  0  0  0  0  0  0  0  0
   10.8372   -7.1342   19.4664 C   0  0  0  0  0  0  0  0  0  0  0  0
   11.7599   -7.0937   20.5137 C   0  0  0  0  0  0  0  0  0  0  0  0
   13.0807   -6.6835   20.2807 C   0  0  0  0  0  0  0  0  0  0  0  0
   13.9980   -6.6606   21.3945 C   0  0  0  0  0  0  0  0  0  0  0  0
   14.7345   -6.6425   22.2872 N   0  0  0  0  0  0  0  0  0  0  0  0
  4  5  1  0
  5  6  1  0
  6  7  2  0
  7  8  1  0
  8  9  2  0
  9  2  1  0
  2  3  2  0
  2  1  1  0
  1 10  1  0
 10 11  1  0
 11 12  2  0
 12 13  1  0
 13 14  2  0
 14 15  1  0
 15 16  2  0
 16 17  1  0
 17 18  3  0
  9  5  1  0
 16 11  1  0
M  END
$$$$
