FCG16425532_PLANTS_9
     RDKit          3D

 18 19  0  0  0  0  0  0  0  0999 V2000
   15.5659    3.5248   15.9343 C   0  0  0  0  0  0  0  0  0  0  0  0
   15.1241    3.1755   17.2826 N   0  0  0  0  0  0  0  0  0  0  0  0
   14.4680    4.0009   18.1225 C   0  0  0  0  0  0  0  0  0  0  0  0
   14.2001    3.3511   19.3097 C   0  0  0  0  0  0  0  0  0  0  0  0
   14.7141    2.0756   19.1886 C   0  0  0  0  0  0  0  0  0  0  0  0
   15.2786    1.9954   17.9285 C   0  0  0  0  0  0  0  0  0  0  0  0
   15.9397    0.7901   17.3912 C   0  0  0  0  0  0  0  0  0  0  0  0
   16.2956    0.7392   16.1830 O   0  0  0  0  0  0  0  0  0  0  0  0
   16.1697   -0.2984   18.2409 O   0  0  0  0  0  0  0  0  0  0  0  0
   16.6931   -1.5473   17.7934 C   0  0  0  0  0  0  0  0  0  0  0  0
   17.9340   -1.3290   16.9579 C   0  0  0  0  0  0  0  0  0  0  0  0
   17.9286   -1.7812   15.6268 C   0  0  0  0  0  0  0  0  0  0  0  0
   19.0429   -1.5915   14.8065 C   0  0  0  0  0  0  0  0  0  0  0  0
   20.1758   -0.9471   15.3035 C   0  0  0  0  0  0  0  0  0  0  0  0
   20.1984   -0.4893   16.6226 C   0  0  0  0  0  0  0  0  0  0  0  0
   19.0862   -0.6731   17.4569 C   0  0  0  0  0  0  0  0  0  0  0  0
   19.1565   -0.1804   18.8116 C   0  0  0  0  0  0  0  0  0  0  0  0
   19.2137    0.2141   19.8981 N   0  0  0  0  0  0  0  0  0  0  0  0
  1  2  1  0
  2  3  1  0
  3  4  2  0
  4  5  1  0
  5  6  2  0
  6  7  1  0
  6  2  1  0
  7  8  2  0
  7  9  1  0
  9 10  1  0
 10 11  1  0
 11 12  2  0
 12 13  1  0
 13 14  2  0
 14 15  1  0
 15 16  2  0
 16 17  1  0
 16 11  1  0
 17 18  3  0
M  END
$$$$
