FCG16425532_PLANTS_7
     RDKit          3D

 18 19  0  0  0  0  0  0  0  0999 V2000
   11.2142   -5.9164   17.8388 C   0  0  0  0  0  0  0  0  0  0  0  0
   12.6236   -6.1840   18.1168 N   0  0  0  0  0  0  0  0  0  0  0  0
   13.1407   -7.3940   18.4095 C   0  0  0  0  0  0  0  0  0  0  0  0
   14.5014   -7.2894   18.6121 C   0  0  0  0  0  0  0  0  0  0  0  0
   14.8279   -5.9597   18.4352 C   0  0  0  0  0  0  0  0  0  0  0  0
   13.6502   -5.3012   18.1310 C   0  0  0  0  0  0  0  0  0  0  0  0
   13.5557   -3.8530   17.8618 C   0  0  0  0  0  0  0  0  0  0  0  0
   12.4609   -3.3369   17.5098 O   0  0  0  0  0  0  0  0  0  0  0  0
   14.6979   -3.0564   18.0038 O   0  0  0  0  0  0  0  0  0  0  0  0
   14.6986   -1.6431   17.8125 C   0  0  0  0  0  0  0  0  0  0  0  0
   16.0598   -1.0691   18.1342 C   0  0  0  0  0  0  0  0  0  0  0  0
   17.1953   -1.8463   17.8460 C   0  0  0  0  0  0  0  0  0  0  0  0
   18.4770   -1.3582   18.1090 C   0  0  0  0  0  0  0  0  0  0  0  0
   18.6421   -0.0879   18.6613 C   0  0  0  0  0  0  0  0  0  0  0  0
   17.5258    0.6992   18.9521 C   0  0  0  0  0  0  0  0  0  0  0  0
   16.2331    0.2210   18.6928 C   0  0  0  0  0  0  0  0  0  0  0  0
   15.1113    1.0723   19.0083 C   0  0  0  0  0  0  0  0  0  0  0  0
   14.2110    1.7543   19.2610 N   0  0  0  0  0  0  0  0  0  0  0  0
  1  2  1  0
  2  3  1  0
  3  4  2  0
  4  5  1  0
  5  6  2  0
  6  7  1  0
  6  2  1  0
  7  8  2  0
  7  9  1  0
  9 10  1  0
 10 11  1  0
 11 12  2  0
 12 13  1  0
 13 14  2  0
 14 15  1  0
 15 16  2  0
 16 17  1  0
 16 11  1  0
 17 18  3  0
M  END
$$$$
