FCG16425532_GNINA_1
     RDKit          3D

 18 19  0  0  0  0  0  0  0  0999 V2000
   15.8544   -1.5096   18.8371 O   0  0  0  0  0  0  0  0  0  0  0  0
   14.7373   -0.8099   18.3659 C   0  0  0  0  0  0  0  0  0  0  0  0
   13.7629   -1.4326   17.8643 O   0  0  0  0  0  0  0  0  0  0  0  0
   16.1662    1.2087   16.4621 C   0  0  0  0  0  0  0  0  0  0  0  0
   15.3429    1.5256   17.6270 N   0  0  0  0  0  0  0  0  0  0  0  0
   15.0652    2.7696   18.0658 C   0  0  0  0  0  0  0  0  0  0  0  0
   14.2598    2.7069   19.1843 C   0  0  0  0  0  0  0  0  0  0  0  0
   14.0369    1.3684   19.4382 C   0  0  0  0  0  0  0  0  0  0  0  0
   14.7172    0.6628   18.4623 C   0  0  0  0  0  0  0  0  0  0  0  0
   16.5360   -2.5051   18.0766 C   0  0  0  0  0  0  0  0  0  0  0  0
   17.6175   -1.8724   17.2305 C   0  0  0  0  0  0  0  0  0  0  0  0
   18.5855   -1.0793   17.8710 C   0  0  0  0  0  0  0  0  0  0  0  0
   19.6152   -0.4839   17.1392 C   0  0  0  0  0  0  0  0  0  0  0  0
   19.6928   -0.6736   15.7593 C   0  0  0  0  0  0  0  0  0  0  0  0
   18.7414   -1.4601   15.1065 C   0  0  0  0  0  0  0  0  0  0  0  0
   17.7023   -2.0638   15.8295 C   0  0  0  0  0  0  0  0  0  0  0  0
   16.7447   -2.8693   15.1106 C   0  0  0  0  0  0  0  0  0  0  0  0
   15.9772   -3.5149   14.5331 N   0  0  0  0  0  0  0  0  0  0  0  0
  4  5  1  0
  5  6  1  0
  6  7  2  0
  7  8  1  0
  8  9  2  0
  9  2  1  0
  2  3  2  0
  2  1  1  0
  1 10  1  0
 10 11  1  0
 11 12  2  0
 12 13  1  0
 13 14  2  0
 14 15  1  0
 15 16  2  0
 16 17  1  0
 17 18  3  0
  9  5  1  0
 16 11  1  0
M  END
$$$$
FCG18066182_GNINA_4
     RDKit          3D

 19 20  0  0  0  0  0  0  0  0999 V2000
   13.5553   -4.8997   17.7505 C   0  0  0  0  0  0  0  0  0  0  0  0
   14.1371   -3.5203   17.6900 C   0  0  0  0  0  0  0  0  0  0  0  0
   13.3742   -2.5285   17.8445 O   0  0  0  0  0  0  0  0  0  0  0  0
   15.5534   -3.3371   17.5269 N   0  0  0  0  0  0  0  0  0  0  0  0
   16.1999   -2.0539   17.5344 C   0  0  0  0  0  0  0  0  0  0  0  0
   16.5786   -1.4158   16.3388 C   0  0  0  0  0  0  0  0  0  0  0  0
   17.2205   -0.1738   16.3762 C   0  0  0  0  0  0  0  0  0  0  0  0
   17.5003    0.4343   17.6028 C   0  0  0  0  0  0  0  0  0  0  0  0
   17.1474   -0.2034   18.7948 C   0  0  0  0  0  0  0  0  0  0  0  0
   16.5074   -1.4460   18.7616 C   0  0  0  0  0  0  0  0  0  0  0  0
   14.7815   -6.0617   18.4443 S   0  0  0  0  0  0  0  0  0  0  0  0
   13.6128   -7.4291   18.7610 C   0  0  0  0  0  0  0  0  0  0  0  0
   10.4589   -7.1423   18.3886 C   0  0  0  0  0  0  0  0  0  0  0  0
   11.2404   -6.9022   19.6398 C   0  0  0  0  0  0  0  0  0  0  0  0
   10.6898   -6.5488   20.8180 N   0  0  0  0  0  0  0  0  0  0  0  0
   11.6643   -6.4394   21.6762 O   0  0  0  0  0  0  0  0  0  0  0  0
   12.8234   -6.7029   21.1166 C   0  0  0  0  0  0  0  0  0  0  0  0
   14.1326   -6.6808   21.8333 C   0  0  0  0  0  0  0  0  0  0  0  0
   12.6113   -6.9948   19.7843 C   0  0  0  0  0  0  0  0  0  0  0  0
 13 14  1  0
 14 15  2  0
 15 16  1  0
 16 17  1  0
 17 18  1  0
 17 19  2  0
 19 12  1  0
 12 11  1  0
 11  1  1  0
  1  2  1  0
  2  3  2  0
  2  4  1  0
  4  5  1  0
  5  6  2  0
  6  7  1  0
  7  8  2  0
  8  9  1  0
  9 10  2  0
 19 14  1  0
 10  5  1  0
M  END
$$$$
FCG17274676_PLANTS_5
     RDKit          3D

 28 31  0  0  0  0  0  0  0  0999 V2000
   14.0183    3.3086   19.0097 C   0  0  0  0  0  0  0  0  0  0  0  0
   15.3155    2.8532   18.3513 C   0  0  0  0  0  0  0  0  0  0  0  0
   15.3692    1.3894   18.2554 N   0  0  0  0  0  0  0  0  0  0  0  0
   14.1549    0.6264   18.1077 C   0  0  0  0  0  0  0  0  0  0  0  0
   13.1694    1.1344   17.5073 O   0  0  0  0  0  0  0  0  0  0  0  0
   13.9964   -0.7323   18.7399 C   0  0  0  0  0  0  0  0  0  0  0  0
   14.2306   -1.7888   17.8093 O   0  0  0  0  0  0  0  0  0  0  0  0
   14.4067   -3.1430   18.1340 C   0  0  0  0  0  0  0  0  0  0  0  0
   15.7028   -3.5880   18.4114 C   0  0  0  0  0  0  0  0  0  0  0  0
   15.9437   -4.9319   18.6963 C   0  0  0  0  0  0  0  0  0  0  0  0
   14.8893   -5.8469   18.7111 C   0  0  0  0  0  0  0  0  0  0  0  0
   13.5733   -5.4226   18.4474 C   0  0  0  0  0  0  0  0  0  0  0  0
   12.4727   -6.3546   18.4511 N   0  0  0  0  0  0  0  0  0  0  0  0
   11.1859   -6.1495   18.1105 C   0  0  0  0  0  0  0  0  0  0  0  0
   10.4868   -7.2891   18.2642 N   0  0  0  0  0  0  0  0  0  0  0  0
   11.3636   -8.1823   18.7008 N   0  0  0  0  0  0  0  0  0  0  0  0
   12.5581   -7.6232   18.8142 N   0  0  0  0  0  0  0  0  0  0  0  0
   13.3411   -4.0628   18.1679 C   0  0  0  0  0  0  0  0  0  0  0  0
   16.6463    0.7322   18.3134 C   0  0  0  0  0  0  0  0  0  0  0  0
   17.5163    1.0333   19.3700 C   0  0  0  0  0  0  0  0  0  0  0  0
   18.7531    0.3961   19.4747 C   0  0  0  0  0  0  0  0  0  0  0  0
   19.1396   -0.5503   18.5254 C   0  0  0  0  0  0  0  0  0  0  0  0
   18.2906   -0.8640   17.4544 C   0  0  0  0  0  0  0  0  0  0  0  0
   18.6765   -1.8220   16.5037 C   0  0  0  0  0  0  0  0  0  0  0  0
   17.8292   -2.1385   15.4402 C   0  0  0  0  0  0  0  0  0  0  0  0
   16.5946   -1.5008   15.3132 C   0  0  0  0  0  0  0  0  0  0  0  0
   16.1969   -0.5439   16.2497 C   0  0  0  0  0  0  0  0  0  0  0  0
   17.0332   -0.2158   17.3355 C   0  0  0  0  0  0  0  0  0  0  0  0
  1  2  1  0
  2  3  1  0
  3  4  1  0
  3 19  1  0
  4  5  2  0
  4  6  1  0
  6  7  1  0
  7  8  1  0
  8  9  2  0
  9 10  1  0
 10 11  2  0
 11 12  1  0
 12 13  1  0
 12 18  2  0
 13 14  1  0
 14 15  2  0
 15 16  1  0
 16 17  2  0
 17 13  1  0
 18  8  1  0
 19 20  2  0
 20 21  1  0
 21 22  2  0
 22 23  1  0
 23 24  2  0
 24 25  1  0
 25 26  2  0
 26 27  1  0
 27 28  2  0
 28 19  1  0
 28 23  1  0
M  END
$$$$
FCG1390566_PLANTS_4
     RDKit          3D

 14 15  0  0  0  0  0  0  0  0999 V2000
   18.7498   -0.9899   16.8063 C   0  0  0  0  0  0  0  0  0  0  0  0
   17.7321   -0.6010   17.7862 N   0  0  0  0  0  0  0  0  0  0  0  0
   17.9709    0.5093   18.7116 C   0  0  0  0  0  0  0  0  0  0  0  0
   16.4825   -1.3115   17.8471 C   0  0  0  0  0  0  0  0  0  0  0  0
   16.2579   -2.4754   17.1975 N   0  0  0  0  0  0  0  0  0  0  0  0
   14.9992   -2.9434   17.4183 C   0  0  0  0  0  0  0  0  0  0  0  0
   14.5002   -4.1941   16.7661 C   0  0  0  0  0  0  0  0  0  0  0  0
   13.2318   -4.6377   17.4185 C   0  0  0  0  0  0  0  0  0  0  0  0
   12.1341   -3.8708   17.5412 N   0  0  0  0  0  0  0  0  0  0  0  0
   11.2385   -4.6604   18.1108 N   0  0  0  0  0  0  0  0  0  0  0  0
   11.7632   -5.8583   18.3164 N   0  0  0  0  0  0  0  0  0  0  0  0
   13.0139   -5.8795   17.8859 N   0  0  0  0  0  0  0  0  0  0  0  0
   14.2031   -2.1424   18.2349 C   0  0  0  0  0  0  0  0  0  0  0  0
   15.1205   -0.8146   18.7074 S   0  0  0  0  0  0  0  0  0  0  0  0
  1  2  1  0
  2  3  1  0
  2  4  1  0
  4  5  2  0
  5  6  1  0
  6  7  1  0
  6 13  2  0
  7  8  1  0
  8  9  2  0
  9 10  1  0
 10 11  2  0
 11 12  1  0
 12  8  1  0
 13 14  1  0
 14  4  1  0
M  END
$$$$
FCG16600623_PLANTS_5
     RDKit          3D

 24 27  0  0  1  0  0  0  0  0999 V2000
   16.8574   -2.1603   15.4773 C   0  0  0  0  0  0  0  0  0  0  0  0
   16.4592   -2.2170   16.9443 C   0  0  2  0  0  0  0  0  0  0  0  0
   15.4751   -3.2248   17.0592 O   0  0  0  0  0  0  0  0  0  0  0  0
   15.3778   -3.9690   18.2449 C   0  0  0  0  0  0  0  0  0  0  0  0
   16.2981   -3.8169   19.0824 O   0  0  0  0  0  0  0  0  0  0  0  0
   14.2556   -4.8669   18.4707 C   0  0  0  0  0  0  0  0  0  0  0  0
   13.0837   -5.0563   17.8119 C   0  0  0  0  0  0  0  0  0  0  0  0
   12.2304   -5.9984   18.2934 C   0  0  0  0  0  0  0  0  0  0  0  0
   12.5712   -6.6916   19.3801 C   0  0  0  0  0  0  0  0  0  0  0  0
   14.1390   -6.0579   19.8065 S   0  0  0  0  0  0  0  0  0  0  0  0
   11.5096   -7.6913   19.7807 C   0  0  0  0  0  0  0  0  0  0  0  0
   10.3007   -6.9835   19.1910 C   0  0  0  0  0  0  0  0  0  0  0  0
   10.8591   -6.5279   17.8759 C   0  0  0  0  0  0  0  0  0  0  0  0
   15.9150   -0.8789   17.3203 C   0  0  0  0  0  0  0  0  0  0  0  0
   16.3097    0.2532   16.7203 N   0  0  0  0  0  0  0  0  0  0  0  0
   15.8190    1.4706   17.0575 C   0  0  0  0  0  0  0  0  0  0  0  0
   16.2286    2.6332   16.4366 C   0  0  0  0  0  0  0  0  0  0  0  0
   15.6972    3.8602   16.8162 C   0  0  0  0  0  0  0  0  0  0  0  0
   14.7511    3.9656   17.8156 C   0  0  0  0  0  0  0  0  0  0  0  0
   14.3413    2.7910   18.4384 C   0  0  0  0  0  0  0  0  0  0  0  0
   14.8737    1.5749   18.0563 C   0  0  0  0  0  0  0  0  0  0  0  0
   14.4655    0.4086   18.6760 C   0  0  0  0  0  0  0  0  0  0  0  0
   13.6002    0.5031   19.5903 O   0  0  0  0  0  0  0  0  0  0  0  0
   14.9928   -0.7767   18.2944 N   0  0  0  0  0  0  0  0  0  0  0  0
  2  1  1  6
  2  3  1  0
  2 14  1  0
  3  4  1  0
  4  5  2  0
  4  6  1  0
  6  7  2  0
  7  8  1  0
  8  9  2  0
  9 10  1  0
  9 11  1  0
 10  6  1  0
 11 12  1  0
 12 13  1  0
 13  8  1  0
 14 15  1  0
 15 16  2  0
 16 17  1  0
 17 18  1  0
 18 19  2  0
 19 20  1  0
 20 21  2  0
 21 22  1  0
 21 16  1  0
 22 23  2  0
 22 24  1  0
 24 14  2  0
M  END
$$$$
FCG17585042_PLANTS_5
     RDKit          3D

 25 28  0  0  0  0  0  0  0  0999 V2000
   16.5985   -2.8039   15.1605 C   0  0  0  0  0  0  0  0  0  0  0  0
   16.2821   -2.6797   16.5822 N   0  0  0  0  0  0  0  0  0  0  0  0
   15.2064   -3.1568   17.2423 C   0  0  0  0  0  0  0  0  0  0  0  0
   14.1108   -3.9827   16.6342 C   0  0  0  0  0  0  0  0  0  0  0  0
   13.7764   -5.1492   17.5230 C   0  0  0  0  0  0  0  0  0  0  0  0
   12.4382   -5.4687   17.8108 C   0  0  0  0  0  0  0  0  0  0  0  0
   12.1364   -6.5365   18.6618 C   0  0  0  0  0  0  0  0  0  0  0  0
   13.1655   -7.2909   19.2317 C   0  0  0  0  0  0  0  0  0  0  0  0
   14.4986   -6.9802   18.9500 C   0  0  0  0  0  0  0  0  0  0  0  0
   14.8051   -5.9129   18.1003 C   0  0  0  0  0  0  0  0  0  0  0  0
   15.1877   -2.7326   18.5214 N   0  0  0  0  0  0  0  0  0  0  0  0
   16.2625   -1.9776   18.6966 N   0  0  0  0  0  0  0  0  0  0  0  0
   16.9152   -1.9471   17.5198 C   0  0  0  0  0  0  0  0  0  0  0  0
   18.4501   -1.0481   17.2657 S   0  0  0  0  0  0  0  0  0  0  0  0
   18.1042    0.2085   18.5466 C   0  0  0  0  0  0  0  0  0  0  0  0
   16.9178    1.0369   18.1697 C   0  0  0  0  0  0  0  0  0  0  0  0
   16.8961    1.6858   16.9673 N   0  0  0  0  0  0  0  0  0  0  0  0
   15.8460    2.4889   16.6616 C   0  0  0  0  0  0  0  0  0  0  0  0
   15.7013    3.2113   15.4757 C   0  0  0  0  0  0  0  0  0  0  0  0
   14.5243    3.9598   15.4527 C   0  0  0  0  0  0  0  0  0  0  0  0
   13.6795    3.7173   16.9023 S   0  0  0  0  0  0  0  0  0  0  0  0
   14.8108    2.6619   17.5538 C   0  0  0  0  0  0  0  0  0  0  0  0
   14.8306    2.0082   18.7779 C   0  0  0  0  0  0  0  0  0  0  0  0
   13.8979    2.1526   19.6105 O   0  0  0  0  0  0  0  0  0  0  0  0
   15.8931    1.2056   19.0629 N   0  0  0  0  0  0  0  0  0  0  0  0
  1  2  1  0
  2  3  1  0
  3  4  1  0
  3 11  2  0
  4  5  1  0
  5  6  2  0
  6  7  1  0
  7  8  2  0
  8  9  1  0
  9 10  2  0
 10  5  1  0
 11 12  1  0
 12 13  2  0
 13 14  1  0
 13  2  1  0
 14 15  1  0
 15 16  1  0
 16 17  1  0
 17 18  2  0
 18 19  1  0
 19 20  2  0
 20 21  1  0
 21 22  1  0
 22 23  1  0
 22 18  1  0
 23 24  2  0
 23 25  1  0
 25 16  2  0
M  END
$$$$
FCG16141527_PLANTS_8
     RDKit          3D

 23 26  0  0  0  0  0  0  0  0999 V2000
   15.2226    3.5749   15.3628 C   0  0  0  0  0  0  0  0  0  0  0  0
   15.7838    2.3574   16.0176 C   0  0  0  0  0  0  0  0  0  0  0  0
   15.1576    1.8161   17.0948 N   0  0  0  0  0  0  0  0  0  0  0  0
   15.6563    0.7273   17.7366 C   0  0  0  0  0  0  0  0  0  0  0  0
   14.7451    0.0818   19.1458 S   0  0  0  0  0  0  0  0  0  0  0  0
   13.5780   -0.8574   18.1094 C   0  0  0  0  0  0  0  0  0  0  0  0
   13.8799   -2.3186   18.2208 C   0  0  0  0  0  0  0  0  0  0  0  0
   15.1471   -2.7573   18.6524 C   0  0  0  0  0  0  0  0  0  0  0  0
   15.4038   -4.1333   18.7100 C   0  0  0  0  0  0  0  0  0  0  0  0
   16.5282   -4.5525   19.0973 O   0  0  0  0  0  0  0  0  0  0  0  0
   14.4221   -5.0018   18.3392 N   0  0  0  0  0  0  0  0  0  0  0  0
   14.4967   -6.3615   18.3296 C   0  0  0  0  0  0  0  0  0  0  0  0
   13.3311   -6.9910   17.8932 C   0  0  0  0  0  0  0  0  0  0  0  0
   12.1837   -5.8058   17.5113 S   0  0  0  0  0  0  0  0  0  0  0  0
   13.2199   -4.5524   17.9190 C   0  0  0  0  0  0  0  0  0  0  0  0
   12.9357   -3.2295   17.8495 N   0  0  0  0  0  0  0  0  0  0  0  0
   16.8605    0.1486   17.2884 C   0  0  0  0  0  0  0  0  0  0  0  0
   17.4430   -0.9785   17.8995 C   0  0  0  0  0  0  0  0  0  0  0  0
   18.6411   -1.5037   17.4055 C   0  0  0  0  0  0  0  0  0  0  0  0
   19.2681   -0.9139   16.3049 C   0  0  0  0  0  0  0  0  0  0  0  0
   18.7003    0.2049   15.6901 C   0  0  0  0  0  0  0  0  0  0  0  0
   17.5005    0.7381   16.1746 C   0  0  0  0  0  0  0  0  0  0  0  0
   16.9515    1.8249   15.5735 N   0  0  0  0  0  0  0  0  0  0  0  0
  1  2  1  0
  2  3  2  0
  3  4  1  0
  4  5  1  0
  4 17  2  0
  5  6  1  0
  6  7  1  0
  7  8  2  0
  8  9  1  0
  9 10  2  0
  9 11  1  0
 11 12  1  0
 12 13  2  0
 13 14  1  0
 14 15  1  0
 15 16  2  0
 15 11  1  0
 16  7  1  0
 17 18  1  0
 18 19  2  0
 19 20  1  0
 20 21  2  0
 21 22  1  0
 22 23  2  0
 22 17  1  0
 23  2  1  0
M  END
$$$$
FCG17822054_PLANTS_4
     RDKit          3D

 21 23  0  0  0  0  0  0  0  0999 V2000
   20.2943   -1.0790   15.6298 N   0  0  0  0  0  0  0  0  0  0  0  0
   19.3608   -0.6804   16.2147 C   0  0  0  0  0  0  0  0  0  0  0  0
   18.2134   -0.2154   16.9398 C   0  0  0  0  0  0  0  0  0  0  0  0
   17.2321    0.5289   16.3167 C   0  0  0  0  0  0  0  0  0  0  0  0
   16.1609    0.9351   17.0936 C   0  0  0  0  0  0  0  0  0  0  0  0
   16.0166    0.6502   18.4160 C   0  0  0  0  0  0  0  0  0  0  0  0
   14.9005    1.0600   19.2746 C   0  0  0  0  0  0  0  0  0  0  0  0
   13.4149    0.0811   19.0381 S   0  0  0  0  0  0  0  0  0  0  0  0
   13.8997   -1.5875   18.6107 C   0  0  0  0  0  0  0  0  0  0  0  0
   13.2189   -2.4588   17.8100 N   0  0  0  0  0  0  0  0  0  0  0  0
   13.8894   -3.5965   17.7287 N   0  0  0  0  0  0  0  0  0  0  0  0
   14.9841   -3.4543   18.4677 C   0  0  0  0  0  0  0  0  0  0  0  0
   16.0776   -4.4635   18.7041 C   0  0  0  0  0  0  0  0  0  0  0  0
   15.5465   -5.7756   18.9418 N   0  0  0  0  0  0  0  0  0  0  0  0
   14.4996   -5.6844   19.9323 C   0  0  0  0  0  0  0  0  0  0  0  0
   13.8131   -7.0447   19.7813 C   0  0  0  0  0  0  0  0  0  0  0  0
   13.8374   -7.2256   18.2639 C   0  0  0  0  0  0  0  0  0  0  0  0
   14.7991   -6.1916   17.7528 C   0  0  0  0  0  0  0  0  0  0  0  0
   14.9651   -2.2624   18.9753 O   0  0  0  0  0  0  0  0  0  0  0  0
   17.0300   -0.1049   19.0108 C   0  0  0  0  0  0  0  0  0  0  0  0
   18.1140   -0.5317   18.2813 C   0  0  0  0  0  0  0  0  0  0  0  0
  1  2  3  0
  2  3  1  0
  3  4  2  0
  4  5  1  0
  5  6  2  0
  6  7  1  0
  6 20  1  0
  7  8  1  0
  8  9  1  0
  9 10  2  0
 10 11  1  0
 11 12  2  0
 12 13  1  0
 12 19  1  0
 13 14  1  0
 14 15  1  0
 15 16  1  0
 16 17  1  0
 17 18  1  0
 18 14  1  0
 19  9  1  0
 20 21  2  0
 21  3  1  0
M  CHG  1  14   1
M  END
$$$$
FCG18472628_PLANTS_6
     RDKit          3D

 24 26  0  0  1  0  0  0  0  0999 V2000
   20.7752   -0.6907   18.4093 C   0  0  0  0  0  0  0  0  0  0  0  0
   19.5433   -0.3982   17.5776 C   0  0  1  0  0  0  0  0  0  0  0  0
   19.7043   -0.8195   16.1542 C   0  0  0  0  0  0  0  0  0  0  0  0
   18.3973   -1.1589   15.5186 C   0  0  0  0  0  0  0  0  0  0  0  0
   17.2431   -0.3233   16.0113 C   0  0  0  0  0  0  0  0  0  0  0  0
   17.1028   -0.3357   17.5128 C   0  0  2  0  0  0  0  0  0  0  0  0
   17.0665    1.0442   17.9500 N   0  0  0  0  0  0  0  0  0  0  0  0
   15.8167    1.6097   18.2743 C   0  0  0  0  0  0  0  0  0  0  0  0
   15.4526    2.6580   17.7095 O   0  0  0  0  0  0  0  0  0  0  0  0
   14.9530    0.9677   19.2693 C   0  0  0  0  0  0  0  0  0  0  0  0
   14.3936   -0.2845   18.7781 N   0  0  0  0  0  0  0  0  0  0  0  0
   13.2986   -0.4708   18.0527 N   0  0  0  0  0  0  0  0  0  0  0  0
   13.1517   -1.7752   17.8220 N   0  0  0  0  0  0  0  0  0  0  0  0
   14.1665   -2.4329   18.4078 C   0  0  0  0  0  0  0  0  0  0  0  0
   14.3809   -3.8753   18.3961 C   0  0  0  0  0  0  0  0  0  0  0  0
   15.4897   -4.4069   19.0174 C   0  0  0  0  0  0  0  0  0  0  0  0
   15.6998   -5.7898   19.0085 C   0  0  0  0  0  0  0  0  0  0  0  0
   14.8125   -6.6538   18.3841 C   0  0  0  0  0  0  0  0  0  0  0  0
   13.7018   -6.1117   17.7627 C   0  0  0  0  0  0  0  0  0  0  0  0
   13.5084   -4.7457   17.7801 C   0  0  0  0  0  0  0  0  0  0  0  0
   11.9718   -4.0202   16.9185 Br  0  0  0  0  0  0  0  0  0  0  0  0
   14.9146   -1.4793   18.9895 N   0  0  0  0  0  0  0  0  0  0  0  0
   18.3029   -0.9706   18.1863 C   0  0  1  0  0  0  0  0  0  0  0  0
   18.2353   -2.4600   18.1737 C   0  0  0  0  0  0  0  0  0  0  0  0
  2  1  1  1
  2  3  1  0
  3  4  1  0
  4  5  1  0
  5  6  1  0
  6  7  1  1
  6 23  1  0
  7  8  1  0
  8  9  2  0
  8 10  1  0
 10 11  1  0
 11 12  1  0
 12 13  2  0
 13 14  1  0
 14 15  1  0
 14 22  2  0
 15 16  2  0
 16 17  1  0
 17 18  2  0
 18 19  1  0
 19 20  2  0
 20 21  1  0
 20 15  1  0
 22 11  1  0
 23 24  1  6
 23  2  1  0
M  END
$$$$
FCG16952409_PLANTS_3
     RDKit          3D

 26 28  0  0  0  0  0  0  0  0999 V2000
   14.0830   -6.6897   21.1153 C   0  0  0  0  0  0  0  0  0  0  0  0
   14.2152   -6.2168   19.7108 C   0  0  0  0  0  0  0  0  0  0  0  0
   15.3727   -6.0842   19.2616 O   0  0  0  0  0  0  0  0  0  0  0  0
   13.1233   -5.9184   18.8834 N   0  0  0  0  0  0  0  0  0  0  0  0
   13.1979   -5.4575   17.5191 C   0  0  0  0  0  0  0  0  0  0  0  0
   14.1049   -4.2986   17.3290 C   0  0  0  0  0  0  0  0  0  0  0  0
   14.1929   -3.1430   18.0458 C   0  0  0  0  0  0  0  0  0  0  0  0
   15.1939   -2.3975   17.4587 C   0  0  0  0  0  0  0  0  0  0  0  0
   15.6758   -3.1579   16.3874 C   0  0  0  0  0  0  0  0  0  0  0  0
   16.7445   -2.7184   15.5097 C   0  0  0  0  0  0  0  0  0  0  0  0
   16.8949   -3.3192   14.4220 O   0  0  0  0  0  0  0  0  0  0  0  0
   17.6383   -1.6123   15.8506 C   0  0  0  0  0  0  0  0  0  0  0  0
   17.9733   -1.5587   17.2147 O   0  0  0  0  0  0  0  0  0  0  0  0
   17.5773   -0.5837   18.0810 C   0  0  0  0  0  0  0  0  0  0  0  0
   17.8774   -0.6904   19.2924 O   0  0  0  0  0  0  0  0  0  0  0  0
   16.8094    0.6013   17.6751 C   0  0  0  0  0  0  0  0  0  0  0  0
   16.0085    1.4068   18.3886 C   0  0  0  0  0  0  0  0  0  0  0  0
   15.4041    2.4401   17.8029 C   0  0  0  0  0  0  0  0  0  0  0  0
   15.6363    2.6362   16.4598 C   0  0  0  0  0  0  0  0  0  0  0  0
   16.7744    1.2532   16.0764 S   0  0  0  0  0  0  0  0  0  0  0  0
   15.1929    3.6074   15.4401 C   0  0  0  0  0  0  0  0  0  0  0  0
   13.6831    3.6129   15.2949 C   0  0  0  0  0  0  0  0  0  0  0  0
   13.0150    3.3132   16.6261 C   0  0  0  0  0  0  0  0  0  0  0  0
   13.5963    4.1634   17.7076 C   0  0  0  0  0  0  0  0  0  0  0  0
   14.4915    3.3731   18.5792 C   0  0  0  0  0  0  0  0  0  0  0  0
   14.9943   -4.2628   16.3661 O   0  0  0  0  0  0  0  0  0  0  0  0
  1  2  1  0
  2  3  2  0
  2  4  1  0
  4  5  1  0
  5  6  1  0
  6  7  2  0
  7  8  1  0
  8  9  2  0
  9 10  1  0
  9 26  1  0
 10 11  2  0
 10 12  1  0
 12 13  1  0
 13 14  1  0
 14 15  2  0
 14 16  1  0
 16 17  2  0
 17 18  1  0
 18 19  2  0
 19 20  1  0
 19 21  1  0
 20 16  1  0
 21 22  1  0
 22 23  1  0
 23 24  1  0
 24 25  1  0
 25 18  1  0
 26  6  1  0
M  END
$$$$
